44584027
  -OEChem-09102004133D

 95100  0     1  0  0  0  0  0999 V2000
   -0.3124   -2.4097    1.3158 O   0  0  0  0  0  0  0  0  0  0  0  0
    3.5942   -2.3346   -1.7883 O   0  0  0  0  0  0  0  0  0  0  0  0
   -1.6534   -2.7987   -3.2447 O   0  0  0  0  0  0  0  0  0  0  0  0
    0.3021   -2.9762   -1.2963 O   0  0  0  0  0  0  0  0  0  0  0  0
    3.1880   -2.1973    2.9618 O   0  0  0  0  0  0  0  0  0  0  0  0
    2.9895   -3.5844    0.5769 O   0  0  0  0  0  0  0  0  0  0  0  0
   -1.3813    2.6068   -1.5979 O   0  0  0  0  0  0  0  0  0  0  0  0
   -2.1688    4.3864    0.4031 O   0  0  0  0  0  0  0  0  0  0  0  0
   -5.1938   -0.9940    1.5085 N   0  0  2  0  0  0  0  0  0  0  0  0
    4.7982    2.4962   -0.7479 N   0  0  2  0  0  0  0  0  0  0  0  0
   -4.9928   -1.3361    0.0743 C   0  0  2  0  0  0  0  0  0  0  0  0
    4.5567    1.9063    0.5967 C   0  0  2  0  0  0  0  0  0  0  0  0
   -3.5710   -1.7786   -0.2817 C   0  0  0  0  0  0  0  0  0  0  0  0
    4.1411    0.4329    0.5805 C   0  0  0  0  0  0  0  0  0  0  0  0
   -4.4101   -1.8547    2.4025 C   0  0  0  0  0  0  0  0  0  0  0  0
    5.4059    1.5364   -1.6773 C   0  0  0  0  0  0  0  0  0  0  0  0
   -2.9215   -1.6426    2.1463 C   0  0  0  0  0  0  0  0  0  0  0  0
   -2.5854   -1.9220    0.7102 C   0  0  0  0  0  0  0  0  0  0  0  0
    4.4469    0.3749   -1.9173 C   0  0  0  0  0  0  0  0  0  0  0  0
    4.0888   -0.2935   -0.6219 C   0  0  0  0  0  0  0  0  0  0  0  0
   -5.3775   -0.1052   -0.7694 C   0  0  0  0  0  0  0  0  0  0  0  0
    3.4682    2.7425    1.2972 C   0  0  0  0  0  0  0  0  0  0  0  0
   -3.2374   -2.1030   -1.6082 C   0  0  0  0  0  0  0  0  0  0  0  0
   -6.6093   -1.0664    1.8908 C   0  0  0  0  0  0  0  0  0  0  0  0
    3.8541   -0.2394    1.7812 C   0  0  0  0  0  0  0  0  0  0  0  0
   -1.2831   -2.3079    0.3611 C   0  0  0  0  0  0  0  0  0  0  0  0
    5.6448    3.6932   -0.6716 C   0  0  0  0  0  0  0  0  0  0  0  0
   -4.5279    1.0812   -0.4621 C   0  0  0  0  0  0  0  0  0  0  0  0
    3.6851   -1.6367   -0.6184 C   0  0  0  0  0  0  0  0  0  0  0  0
    2.1815    2.7070    0.5291 C   0  0  0  0  0  0  0  0  0  0  0  0
   -1.9433   -2.5025   -1.9468 C   0  0  0  0  0  0  0  0  0  0  0  0
   -0.9640   -2.5957   -0.9637 C   0  0  0  0  0  0  0  0  0  0  0  0
    3.4691   -1.5811    1.7796 C   0  0  0  0  0  0  0  0  0  0  0  0
    3.3753   -2.2770    0.5790 C   0  0  0  0  0  0  0  0  0  0  0  0
   -3.3467    1.2955   -1.1725 C   0  0  0  0  0  0  0  0  0  0  0  0
   -4.9137    1.9764    0.5357 C   0  0  0  0  0  0  0  0  0  0  0  0
    1.9286    3.6642   -0.4535 C   0  0  0  0  0  0  0  0  0  0  0  0
    1.2369    1.7162    0.7970 C   0  0  0  0  0  0  0  0  0  0  0  0
   -2.5517    2.4050   -0.8854 C   0  0  0  0  0  0  0  0  0  0  0  0
   -0.2134    2.6400   -0.9000 C   0  0  0  0  0  0  0  0  0  0  0  0
    0.7312    3.6307   -1.1681 C   0  0  0  0  0  0  0  0  0  0  0  0
    0.0395    1.6827    0.0825 C   0  0  0  0  0  0  0  0  0  0  0  0
   -4.1188    3.0859    0.8228 C   0  0  0  0  0  0  0  0  0  0  0  0
   -2.9377    3.3002    0.1122 C   0  0  0  0  0  0  0  0  0  0  0  0
   -1.1945   -1.7272   -4.0666 C   0  0  0  0  0  0  0  0  0  0  0  0
    0.5893   -4.3724   -1.2569 C   0  0  0  0  0  0  0  0  0  0  0  0
    3.3089   -1.4120    4.1463 C   0  0  0  0  0  0  0  0  0  0  0  0
    4.0203   -4.5634    0.6888 C   0  0  0  0  0  0  0  0  0  0  0  0
   -2.6346    5.2519    1.4367 C   0  0  0  0  0  0  0  0  0  0  0  0
   -5.6458   -2.1800   -0.1897 H   0  0  0  0  0  0  0  0  0  0  0  0
    5.4862    1.9511    1.1818 H   0  0  0  0  0  0  0  0  0  0  0  0
   -4.6810   -2.9109    2.2684 H   0  0  0  0  0  0  0  0  0  0  0  0
   -4.6103   -1.5960    3.4498 H   0  0  0  0  0  0  0  0  0  0  0  0
    6.3686    1.1726   -1.2927 H   0  0  0  0  0  0  0  0  0  0  0  0
    5.6003    2.0162   -2.6446 H   0  0  0  0  0  0  0  0  0  0  0  0
   -2.3842   -2.3233    2.8166 H   0  0  0  0  0  0  0  0  0  0  0  0
   -2.6284   -0.6146    2.3924 H   0  0  0  0  0  0  0  0  0  0  0  0
    4.9563   -0.3217   -2.5929 H   0  0  0  0  0  0  0  0  0  0  0  0
    3.5308    0.7240   -2.4094 H   0  0  0  0  0  0  0  0  0  0  0  0
   -6.4334    0.1560   -0.6248 H   0  0  0  0  0  0  0  0  0  0  0  0
   -5.3176   -0.3259   -1.8430 H   0  0  0  0  0  0  0  0  0  0  0  0
    3.7876    3.7838    1.4272 H   0  0  0  0  0  0  0  0  0  0  0  0
    3.2892    2.3978    2.3233 H   0  0  0  0  0  0  0  0  0  0  0  0
   -3.9915   -2.0515   -2.3901 H   0  0  0  0  0  0  0  0  0  0  0  0
   -7.2271   -0.3790    1.3063 H   0  0  0  0  0  0  0  0  0  0  0  0
   -6.7374   -0.7682    2.9378 H   0  0  0  0  0  0  0  0  0  0  0  0
   -7.0146   -2.0779    1.7721 H   0  0  0  0  0  0  0  0  0  0  0  0
    3.9621    0.3349    2.6946 H   0  0  0  0  0  0  0  0  0  0  0  0
    5.1948    4.4744   -0.0526 H   0  0  0  0  0  0  0  0  0  0  0  0
    5.7713    4.1349   -1.6668 H   0  0  0  0  0  0  0  0  0  0  0  0
    6.6391    3.4669   -0.2697 H   0  0  0  0  0  0  0  0  0  0  0  0
   -3.0443    0.6277   -1.9730 H   0  0  0  0  0  0  0  0  0  0  0  0
   -5.8362    1.8314    1.0911 H   0  0  0  0  0  0  0  0  0  0  0  0
    2.6461    4.4514   -0.6673 H   0  0  0  0  0  0  0  0  0  0  0  0
    1.3947    0.9781    1.5766 H   0  0  0  0  0  0  0  0  0  0  0  0
   -0.5390   -1.8625    2.0846 H   0  0  0  0  0  0  0  0  0  0  0  0
    0.5381    4.3809   -1.9301 H   0  0  0  0  0  0  0  0  0  0  0  0
   -0.6731    0.8940    0.3061 H   0  0  0  0  0  0  0  0  0  0  0  0
    3.4856   -1.7253   -2.5357 H   0  0  0  0  0  0  0  0  0  0  0  0
   -4.4818    3.7393    1.6086 H   0  0  0  0  0  0  0  0  0  0  0  0
   -0.9957   -2.1228   -5.0663 H   0  0  0  0  0  0  0  0  0  0  0  0
   -0.2675   -1.3040   -3.6666 H   0  0  0  0  0  0  0  0  0  0  0  0
   -1.9600   -0.9485   -4.1434 H   0  0  0  0  0  0  0  0  0  0  0  0
    1.5980   -4.5294   -1.6476 H   0  0  0  0  0  0  0  0  0  0  0  0
    0.5435   -4.7441   -0.2288 H   0  0  0  0  0  0  0  0  0  0  0  0
   -0.1127   -4.9304   -1.8851 H   0  0  0  0  0  0  0  0  0  0  0  0
    3.0421   -2.0586    4.9888 H   0  0  0  0  0  0  0  0  0  0  0  0
    2.6000   -0.5768    4.1519 H   0  0  0  0  0  0  0  0  0  0  0  0
    4.3416   -1.0868    4.3119 H   0  0  0  0  0  0  0  0  0  0  0  0
    4.7156   -4.4894   -0.1533 H   0  0  0  0  0  0  0  0  0  0  0  0
    4.5608   -4.4478    1.6335 H   0  0  0  0  0  0  0  0  0  0  0  0
    3.5551   -5.5527    0.6711 H   0  0  0  0  0  0  0  0  0  0  0  0
   -3.5897    5.7185    1.1726 H   0  0  0  0  0  0  0  0  0  0  0  0
   -1.9022    6.0601    1.5340 H   0  0  0  0  0  0  0  0  0  0  0  0
   -2.6733    4.7402    2.4043 H   0  0  0  0  0  0  0  0  0  0  0  0
  1 26  1  0  0  0  0
  1 76  1  0  0  0  0
  2 29  1  0  0  0  0
  2 79  1  0  0  0  0
  3 31  1  0  0  0  0
  3 45  1  0  0  0  0
  4 32  1  0  0  0  0
  4 46  1  0  0  0  0
  5 33  1  0  0  0  0
  5 47  1  0  0  0  0
  6 34  1  0  0  0  0
  6 48  1  0  0  0  0
  7 39  1  0  0  0  0
  7 40  1  0  0  0  0
  8 44  1  0  0  0  0
  8 49  1  0  0  0  0
  9 11  1  0  0  0  0
  9 15  1  0  0  0  0
  9 24  1  0  0  0  0
 10 12  1  0  0  0  0
 10 16  1  0  0  0  0
 10 27  1  0  0  0  0
 11 13  1  0  0  0  0
 11 21  1  0  0  0  0
 11 50  1  0  0  0  0
 12 14  1  0  0  0  0
 12 22  1  0  0  0  0
 12 51  1  0  0  0  0
 13 18  1  0  0  0  0
 13 23  2  0  0  0  0
 14 20  1  0  0  0  0
 14 25  2  0  0  0  0
 15 17  1  0  0  0  0
 15 52  1  0  0  0  0
 15 53  1  0  0  0  0
 16 19  1  0  0  0  0
 16 54  1  0  0  0  0
 16 55  1  0  0  0  0
 17 18  1  0  0  0  0
 17 56  1  0  0  0  0
 17 57  1  0  0  0  0
 18 26  2  0  0  0  0
 19 20  1  0  0  0  0
 19 58  1  0  0  0  0
 19 59  1  0  0  0  0
 20 29  2  0  0  0  0
 21 28  1  0  0  0  0
 21 60  1  0  0  0  0
 21 61  1  0  0  0  0
 22 30  1  0  0  0  0
 22 62  1  0  0  0  0
 22 63  1  0  0  0  0
 23 31  1  0  0  0  0
 23 64  1  0  0  0  0
 24 65  1  0  0  0  0
 24 66  1  0  0  0  0
 24 67  1  0  0  0  0
 25 33  1  0  0  0  0
 25 68  1  0  0  0  0
 26 32  1  0  0  0  0
 27 69  1  0  0  0  0
 27 70  1  0  0  0  0
 27 71  1  0  0  0  0
 28 35  2  0  0  0  0
 28 36  1  0  0  0  0
 29 34  1  0  0  0  0
 30 37  2  0  0  0  0
 30 38  1  0  0  0  0
 31 32  2  0  0  0  0
 33 34  2  0  0  0  0
 35 39  1  0  0  0  0
 35 72  1  0  0  0  0
 36 43  2  0  0  0  0
 36 73  1  0  0  0  0
 37 41  1  0  0  0  0
 37 74  1  0  0  0  0
 38 42  2  0  0  0  0
 38 75  1  0  0  0  0
 39 44  2  0  0  0  0
 40 41  2  0  0  0  0
 40 42  1  0  0  0  0
 41 77  1  0  0  0  0
 42 78  1  0  0  0  0
 43 44  1  0  0  0  0
 43 80  1  0  0  0  0
 45 81  1  0  0  0  0
 45 82  1  0  0  0  0
 45 83  1  0  0  0  0
 46 84  1  0  0  0  0
 46 85  1  0  0  0  0
 46 86  1  0  0  0  0
 47 87  1  0  0  0  0
 47 88  1  0  0  0  0
 47 89  1  0  0  0  0
 48 90  1  0  0  0  0
 48 91  1  0  0  0  0
 48 92  1  0  0  0  0
 49 93  1  0  0  0  0
 49 94  1  0  0  0  0
 49 95  1  0  0  0  0
M  END
> <PUBCHEM_COMPOUND_CID>
44584027

> <PUBCHEM_CONFORMER_RMSD>
1.4

> <PUBCHEM_CONFORMER_DIVERSEORDER>
1
105
36
79
74
164
148
112
125
18
162
43
10
128
71
31
108
110
61
56
122
113
121
95
11
51
123
120
25
99
63
86
161
69
49
16
134
45
160
89
117
116
98
4
152
144
2
132
106
140
3
47
21
154
60
50
91
101
44
73
58
81
111
158
96
153
35
53
84
149
80
78
107
151
42
94
39
126
136
52
115
138
17
141
130
34
155
100
133
26
114
143
156
5
70
67
29
124
159
76
85
104
131
163
33
72
145
6
137
77
87
62
118
20
7
157
109
142
38
46
90
65
48
147
57
23
127
12
129
14
15
64
146
93
68
28
13
27
83
9
119
54
30
82
88
41
55
32
19
92
150
102
103
139
75
59
8
97
22
24
40
135
37
66

> <PUBCHEM_MMFF94_PARTIAL_CHARGES>
60
1 -0.53
10 -0.81
11 0.41
12 0.41
13 -0.14
14 -0.14
15 0.27
16 0.27
17 0.14
18 -0.14
19 0.14
2 -0.53
20 -0.14
21 0.14
22 0.14
23 -0.15
24 0.27
25 -0.15
26 0.08
27 0.27
28 -0.14
29 0.08
3 -0.36
30 -0.14
31 0.08
32 0.08
33 0.08
34 0.08
35 -0.15
36 -0.15
37 -0.15
38 -0.15
39 0.08
4 -0.36
40 0.08
41 -0.15
42 -0.15
43 -0.15
44 0.08
45 0.28
46 0.28
47 0.28
48 0.28
49 0.28
5 -0.36
6 -0.36
64 0.15
68 0.15
7 -0.17
72 0.15
73 0.15
74 0.15
75 0.15
76 0.45
77 0.15
78 0.15
79 0.45
8 -0.36
80 0.15
9 -0.81

> <PUBCHEM_EFFECTIVE_ROTOR_COUNT>
12.6

> <PUBCHEM_PHARMACOPHORE_FEATURES>
16
1 1 donor
1 10 cation
1 2 donor
1 3 acceptor
1 4 acceptor
1 5 acceptor
1 6 acceptor
1 7 acceptor
1 8 acceptor
1 9 cation
6 10 12 14 16 19 20 rings
6 13 18 23 26 31 32 rings
6 14 20 25 29 33 34 rings
6 28 35 36 39 43 44 rings
6 30 37 38 40 41 42 rings
6 9 11 13 15 17 18 rings

> <PUBCHEM_HEAVY_ATOM_COUNT>
49

> <PUBCHEM_ATOM_DEF_STEREO_COUNT>
2

> <PUBCHEM_ATOM_UDEF_STEREO_COUNT>
0

> <PUBCHEM_BOND_DEF_STEREO_COUNT>
0

> <PUBCHEM_BOND_UDEF_STEREO_COUNT>
0

> <PUBCHEM_ISOTOPIC_ATOM_COUNT>
0

> <PUBCHEM_COMPONENT_COUNT>
1

> <PUBCHEM_CACTVS_TAUTO_COUNT>
3

> <PUBCHEM_CONFORMER_ID>
02A84C5B00000001

> <PUBCHEM_MMFF94_ENERGY>
207.2248

> <PUBCHEM_FEATURE_SELFOVERLAP>
81.258

> <PUBCHEM_SHAPE_FINGERPRINT>
10462674 296 17338431624521681718
11513181 2 18272369788909203542
12128747 34 18113341938043297531
12156800 1 17831626077822749309
12422481 6 18341059506544446003
12788726 201 18412260661816870528
14840074 17 18270690877935428311
14950920 106 17676759877730290187
15001296 14 18260546671851650937
15274700 242 17825371128483252360
15320291 9 18194681471345826616
15406563 42 17168439267193320042
15484559 13 17182750205281822364
15968369 153 18270953643670639961
15968369 26 17977940185716473180
16112460 7 18269003002996272721
19311894 1 17762900274990669150
19319366 153 17749948998514390674
20764821 26 18268123470892180014
24941158 1 14924217180610235896
460360 51 17896577558001000060
463206 1 17762338016152124232

> <PUBCHEM_SHAPE_MULTIPOLES>
951.48
12.78
6.77
2.9
1.5
2.57
-0.16
1.65
-3.01
-1.41
0.21
-0.4
-2.56
-1.79

> <PUBCHEM_SHAPE_SELFOVERLAP>
2072.269

> <PUBCHEM_SHAPE_VOLUME>
519.5

> <PUBCHEM_COORDINATE_TYPE>
2
5
10

$$$$
