5321919
  -OEChem-09102000263D

 92 98  0     1  0  0  0  0  0999 V2000
    0.7343   -0.0376   -0.2369 O   0  0  0  0  0  0  0  0  0  0  0  0
    5.7308    0.8988    1.9358 O   0  0  0  0  0  0  0  0  0  0  0  0
    1.0658    1.7532    1.9001 O   0  0  0  0  0  0  0  0  0  0  0  0
    3.5439    2.2047    2.9362 O   0  0  0  0  0  0  0  0  0  0  0  0
    1.6965    1.6764   -2.2873 O   0  0  0  0  0  0  0  0  0  0  0  0
   -3.1772   -3.3150   -0.3153 O   0  0  0  0  0  0  0  0  0  0  0  0
   -4.5083   -3.5618    2.0755 O   0  0  0  0  0  0  0  0  0  0  0  0
    4.2083   -1.6154   -2.1113 N   0  0  1  0  0  0  0  0  0  0  0  0
   -4.0131    3.8471   -0.2231 N   0  0  2  0  0  0  0  0  0  0  0  0
    2.9452   -1.5426   -1.3371 C   0  0  2  0  0  0  0  0  0  0  0  0
    3.0866   -0.5069   -0.2167 C   0  0  0  0  0  0  0  0  0  0  0  0
   -3.4672    2.4840   -0.0076 C   0  0  2  0  0  0  0  0  0  0  0  0
    4.3587   -0.2666    0.3446 C   0  0  0  0  0  0  0  0  0  0  0  0
    5.3373   -1.9983   -1.2636 C   0  0  0  0  0  0  0  0  0  0  0  0
    5.6012   -0.9107   -0.2207 C   0  0  0  0  0  0  0  0  0  0  0  0
   -2.0691    2.2921   -0.5865 C   0  0  0  0  0  0  0  0  0  0  0  0
    2.4779   -2.9127   -0.7554 C   0  0  0  0  0  0  0  0  0  0  0  0
   -3.8460    4.2864   -1.6130 C   0  0  0  0  0  0  0  0  0  0  0  0
   -1.5863    3.1369   -1.6050 C   0  0  0  0  0  0  0  0  0  0  0  0
   -2.3884    4.3229   -2.0738 C   0  0  0  0  0  0  0  0  0  0  0  0
    1.9854    0.2144    0.2834 C   0  0  0  0  0  0  0  0  0  0  0  0
   -4.4749    1.4553   -0.5967 C   0  0  0  0  0  0  0  0  0  0  0  0
    4.5000    0.6507    1.3977 C   0  0  0  0  0  0  0  0  0  0  0  0
   -1.2509    1.2514   -0.1243 C   0  0  0  0  0  0  0  0  0  0  0  0
    4.1197   -2.4442   -3.3082 C   0  0  0  0  0  0  0  0  0  0  0  0
    0.0168    1.0504   -0.6741 C   0  0  0  0  0  0  0  0  0  0  0  0
    2.1360    1.1113    1.3489 C   0  0  0  0  0  0  0  0  0  0  0  0
    0.9775   -3.0406   -0.6178 C   0  0  0  0  0  0  0  0  0  0  0  0
   -0.3088    2.9226   -2.1468 C   0  0  0  0  0  0  0  0  0  0  0  0
    3.3934    1.3282    1.9020 C   0  0  0  0  0  0  0  0  0  0  0  0
   -3.4846    4.8164    0.7361 C   0  0  0  0  0  0  0  0  0  0  0  0
   -4.4709    0.1149    0.1039 C   0  0  0  0  0  0  0  0  0  0  0  0
    0.4876    1.8735   -1.6946 C   0  0  0  0  0  0  0  0  0  0  0  0
    0.1740   -3.1559   -1.7631 C   0  0  0  0  0  0  0  0  0  0  0  0
    0.3697   -3.0439    0.6450 C   0  0  0  0  0  0  0  0  0  0  0  0
   -3.8213   -0.9903   -0.4596 C   0  0  0  0  0  0  0  0  0  0  0  0
   -5.1229   -0.0349    1.3376 C   0  0  0  0  0  0  0  0  0  0  0  0
   -3.8092   -2.2136    0.2191 C   0  0  0  0  0  0  0  0  0  0  0  0
   -1.2128   -3.2491   -1.6518 C   0  0  0  0  0  0  0  0  0  0  0  0
   -1.0187   -3.1265    0.7605 C   0  0  0  0  0  0  0  0  0  0  0  0
   -1.8057   -3.2085   -0.3911 C   0  0  0  0  0  0  0  0  0  0  0  0
   -5.1364   -1.2687    1.9912 C   0  0  0  0  0  0  0  0  0  0  0  0
   -4.4859   -2.3641    1.4289 C   0  0  0  0  0  0  0  0  0  0  0  0
    6.1327    0.0791    3.0292 C   0  0  0  0  0  0  0  0  0  0  0  0
    0.4111    1.1021    2.9861 C   0  0  0  0  0  0  0  0  0  0  0  0
    3.8151    3.5630    2.5986 C   0  0  0  0  0  0  0  0  0  0  0  0
    1.7275    0.8258   -3.4326 C   0  0  0  0  0  0  0  0  0  0  0  0
   -5.5745   -4.4535    1.7536 C   0  0  0  0  0  0  0  0  0  0  0  0
    2.1821   -1.1877   -2.0249 H   0  0  0  0  0  0  0  0  0  0  0  0
   -3.4078    2.3221    1.0777 H   0  0  0  0  0  0  0  0  0  0  0  0
    6.2497   -2.1208   -1.8610 H   0  0  0  0  0  0  0  0  0  0  0  0
    5.1597   -2.9625   -0.7715 H   0  0  0  0  0  0  0  0  0  0  0  0
    6.1972   -0.1171   -0.6909 H   0  0  0  0  0  0  0  0  0  0  0  0
    6.2059   -1.3512    0.5789 H   0  0  0  0  0  0  0  0  0  0  0  0
    2.9580   -3.1065    0.2133 H   0  0  0  0  0  0  0  0  0  0  0  0
    2.7847   -3.7461   -1.3975 H   0  0  0  0  0  0  0  0  0  0  0  0
   -4.3029    5.2736   -1.7576 H   0  0  0  0  0  0  0  0  0  0  0  0
   -4.4137    3.6157   -2.2706 H   0  0  0  0  0  0  0  0  0  0  0  0
   -1.9063    5.2321   -1.6930 H   0  0  0  0  0  0  0  0  0  0  0  0
   -2.3668    4.3729   -3.1691 H   0  0  0  0  0  0  0  0  0  0  0  0
   -4.3074    1.3098   -1.6724 H   0  0  0  0  0  0  0  0  0  0  0  0
   -5.5003    1.8437   -0.5114 H   0  0  0  0  0  0  0  0  0  0  0  0
   -1.5997    0.5908    0.6650 H   0  0  0  0  0  0  0  0  0  0  0  0
    4.0685   -3.5152   -3.0891 H   0  0  0  0  0  0  0  0  0  0  0  0
    4.9983   -2.2789   -3.9419 H   0  0  0  0  0  0  0  0  0  0  0  0
    3.2471   -2.1705   -3.9111 H   0  0  0  0  0  0  0  0  0  0  0  0
    0.0615    3.5803   -2.9303 H   0  0  0  0  0  0  0  0  0  0  0  0
   -2.3959    4.9227    0.6888 H   0  0  0  0  0  0  0  0  0  0  0  0
   -3.7515    4.5230    1.7576 H   0  0  0  0  0  0  0  0  0  0  0  0
   -3.9329    5.8026    0.5716 H   0  0  0  0  0  0  0  0  0  0  0  0
    0.6282   -3.1690   -2.7510 H   0  0  0  0  0  0  0  0  0  0  0  0
    0.9724   -2.9668    1.5462 H   0  0  0  0  0  0  0  0  0  0  0  0
   -3.3200   -0.8940   -1.4193 H   0  0  0  0  0  0  0  0  0  0  0  0
   -5.6325    0.8107    1.7931 H   0  0  0  0  0  0  0  0  0  0  0  0
   -1.8215   -3.3369   -2.5472 H   0  0  0  0  0  0  0  0  0  0  0  0
   -1.4708   -3.1276    1.7480 H   0  0  0  0  0  0  0  0  0  0  0  0
   -5.6564   -1.3659    2.9404 H   0  0  0  0  0  0  0  0  0  0  0  0
    7.2159    0.1708    3.1469 H   0  0  0  0  0  0  0  0  0  0  0  0
    5.8859   -0.9744    2.8633 H   0  0  0  0  0  0  0  0  0  0  0  0
    5.6515    0.4275    3.9483 H   0  0  0  0  0  0  0  0  0  0  0  0
   -0.4797    1.6808    3.2453 H   0  0  0  0  0  0  0  0  0  0  0  0
    1.0682    1.0623    3.8602 H   0  0  0  0  0  0  0  0  0  0  0  0
    0.1010    0.0901    2.7060 H   0  0  0  0  0  0  0  0  0  0  0  0
    4.7561    3.6426    2.0451 H   0  0  0  0  0  0  0  0  0  0  0  0
    3.9063    4.1346    3.5262 H   0  0  0  0  0  0  0  0  0  0  0  0
    2.9956    3.9842    2.0076 H   0  0  0  0  0  0  0  0  0  0  0  0
    1.4562    1.4133   -4.3160 H   0  0  0  0  0  0  0  0  0  0  0  0
    1.0303   -0.0131   -3.3449 H   0  0  0  0  0  0  0  0  0  0  0  0
    2.7473    0.4624   -3.5738 H   0  0  0  0  0  0  0  0  0  0  0  0
   -5.5491   -4.7176    0.6916 H   0  0  0  0  0  0  0  0  0  0  0  0
   -6.5397   -4.0031    2.0062 H   0  0  0  0  0  0  0  0  0  0  0  0
   -5.4484   -5.3652    2.3439 H   0  0  0  0  0  0  0  0  0  0  0  0
  1 21  1  0  0  0  0
  1 26  1  0  0  0  0
  2 23  1  0  0  0  0
  2 44  1  0  0  0  0
  3 27  1  0  0  0  0
  3 45  1  0  0  0  0
  4 30  1  0  0  0  0
  4 46  1  0  0  0  0
  5 33  1  0  0  0  0
  5 47  1  0  0  0  0
  6 38  1  0  0  0  0
  6 41  1  0  0  0  0
  7 43  1  0  0  0  0
  7 48  1  0  0  0  0
  8 10  1  0  0  0  0
  8 14  1  0  0  0  0
  8 25  1  0  0  0  0
  9 12  1  0  0  0  0
  9 18  1  0  0  0  0
  9 31  1  0  0  0  0
 10 11  1  0  0  0  0
 10 17  1  0  0  0  0
 10 49  1  0  0  0  0
 11 13  2  0  0  0  0
 11 21  1  0  0  0  0
 12 16  1  0  0  0  0
 12 22  1  0  0  0  0
 12 50  1  0  0  0  0
 13 15  1  0  0  0  0
 13 23  1  0  0  0  0
 14 15  1  0  0  0  0
 14 51  1  0  0  0  0
 14 52  1  0  0  0  0
 15 53  1  0  0  0  0
 15 54  1  0  0  0  0
 16 19  1  0  0  0  0
 16 24  2  0  0  0  0
 17 28  1  0  0  0  0
 17 55  1  0  0  0  0
 17 56  1  0  0  0  0
 18 20  1  0  0  0  0
 18 57  1  0  0  0  0
 18 58  1  0  0  0  0
 19 20  1  0  0  0  0
 19 29  2  0  0  0  0
 20 59  1  0  0  0  0
 20 60  1  0  0  0  0
 21 27  2  0  0  0  0
 22 32  1  0  0  0  0
 22 61  1  0  0  0  0
 22 62  1  0  0  0  0
 23 30  2  0  0  0  0
 24 26  1  0  0  0  0
 24 63  1  0  0  0  0
 25 64  1  0  0  0  0
 25 65  1  0  0  0  0
 25 66  1  0  0  0  0
 26 33  2  0  0  0  0
 27 30  1  0  0  0  0
 28 34  2  0  0  0  0
 28 35  1  0  0  0  0
 29 33  1  0  0  0  0
 29 67  1  0  0  0  0
 31 68  1  0  0  0  0
 31 69  1  0  0  0  0
 31 70  1  0  0  0  0
 32 36  2  0  0  0  0
 32 37  1  0  0  0  0
 34 39  1  0  0  0  0
 34 71  1  0  0  0  0
 35 40  2  0  0  0  0
 35 72  1  0  0  0  0
 36 38  1  0  0  0  0
 36 73  1  0  0  0  0
 37 42  2  0  0  0  0
 37 74  1  0  0  0  0
 38 43  2  0  0  0  0
 39 41  2  0  0  0  0
 39 75  1  0  0  0  0
 40 41  1  0  0  0  0
 40 76  1  0  0  0  0
 42 43  1  0  0  0  0
 42 77  1  0  0  0  0
 44 78  1  0  0  0  0
 44 79  1  0  0  0  0
 44 80  1  0  0  0  0
 45 81  1  0  0  0  0
 45 82  1  0  0  0  0
 45 83  1  0  0  0  0
 46 84  1  0  0  0  0
 46 85  1  0  0  0  0
 46 86  1  0  0  0  0
 47 87  1  0  0  0  0
 47 88  1  0  0  0  0
 47 89  1  0  0  0  0
 48 90  1  0  0  0  0
 48 91  1  0  0  0  0
 48 92  1  0  0  0  0
M  END
> <PUBCHEM_COMPOUND_CID>
5321919

> <PUBCHEM_CONFORMER_RMSD>
1

> <PUBCHEM_CONFORMER_DIVERSEORDER>
1
2
4
3

> <PUBCHEM_MMFF94_PARTIAL_CHARGES>
57
1 -0.17
10 0.41
11 -0.14
12 0.41
13 -0.14
14 0.27
15 0.14
16 -0.14
17 0.14
18 0.27
19 -0.14
2 -0.36
20 0.14
21 0.08
22 0.14
23 0.08
24 -0.15
25 0.27
26 0.08
27 0.08
28 -0.14
29 -0.15
3 -0.36
30 0.08
31 0.27
32 -0.14
33 0.08
34 -0.15
35 -0.15
36 -0.15
37 -0.15
38 0.08
39 -0.15
4 -0.36
40 -0.15
41 0.08
42 -0.15
43 0.08
44 0.28
45 0.28
46 0.28
47 0.28
48 0.28
5 -0.36
6 -0.17
63 0.15
67 0.15
7 -0.36
71 0.15
72 0.15
73 0.15
74 0.15
75 0.15
76 0.15
77 0.15
8 -0.81
9 -0.81

> <PUBCHEM_EFFECTIVE_ROTOR_COUNT>
7

> <PUBCHEM_PHARMACOPHORE_FEATURES>
15
1 1 acceptor
1 2 acceptor
1 3 acceptor
1 4 acceptor
1 5 acceptor
1 6 acceptor
1 7 acceptor
1 8 cation
1 9 cation
6 11 13 21 23 27 30 rings
6 16 19 24 26 29 33 rings
6 28 34 35 39 40 41 rings
6 32 36 37 38 42 43 rings
6 8 10 11 13 14 15 rings
6 9 12 16 18 19 20 rings

> <PUBCHEM_HEAVY_ATOM_COUNT>
48

> <PUBCHEM_ATOM_DEF_STEREO_COUNT>
2

> <PUBCHEM_ATOM_UDEF_STEREO_COUNT>
0

> <PUBCHEM_BOND_DEF_STEREO_COUNT>
0

> <PUBCHEM_BOND_UDEF_STEREO_COUNT>
0

> <PUBCHEM_ISOTOPIC_ATOM_COUNT>
0

> <PUBCHEM_COMPONENT_COUNT>
1

> <PUBCHEM_CACTVS_TAUTO_COUNT>
1

> <PUBCHEM_CONFORMER_ID>
005134BF00000001

> <PUBCHEM_MMFF94_ENERGY>
222.1406

> <PUBCHEM_FEATURE_SELFOVERLAP>
76.194

> <PUBCHEM_SHAPE_FINGERPRINT>
10462674 125 17127870681242701823
10974685 15 18334295323045923706
12422481 6 18340758334521116098
12522641 24 17333639485462659553
131258 38 16885823181875970403
13383668 90 15509141762961234734
13782708 43 18339642244451335578
140371 6 17403163193785007807
14040221 97 18271526499037243356
14932702 115 18050306781223835358
15001296 14 18042703834691076237
15406563 190 17751658558354047733
15968369 153 18343305890431049983
16067689 391 16552584937365436446
16067690 210 17749400302945202529
20764821 26 18189639274788240127
21033648 29 18269545057685871992
244849 19 18059855013714837628
25223398 141 18262520286907354662
3383291 50 18260830376828471945
508706 21 18409728422413987455
552612 73 18271241746594570368

> <PUBCHEM_SHAPE_MULTIPOLES>
936.77
12.29
6.5
3.19
3.04
0.85
0.18
-2.54
5.92
-8.67
-0.77
3.47
1.06
6.32

> <PUBCHEM_SHAPE_SELFOVERLAP>
2055.492

> <PUBCHEM_SHAPE_VOLUME>
506.6

> <PUBCHEM_COORDINATE_TYPE>
2
5
10

$$$$
