5321920
  -OEChem-09102000253D

 89 95  0     1  0  0  0  0  0999 V2000
   -1.2809   -0.5585   -0.9362 O   0  0  0  0  0  0  0  0  0  0  0  0
   -1.8033   -0.7217    1.9088 O   0  0  0  0  0  0  0  0  0  0  0  0
   -0.4508   -2.5394    3.3982 O   0  0  0  0  0  0  0  0  0  0  0  0
   -5.9521   -1.4553   -0.2531 O   0  0  0  0  0  0  0  0  0  0  0  0
   -3.4020   -2.3871   -0.6369 O   0  0  0  0  0  0  0  0  0  0  0  0
    3.9761    2.0837   -0.3763 O   0  0  0  0  0  0  0  0  0  0  0  0
    4.2628    4.7000    0.2349 O   0  0  0  0  0  0  0  0  0  0  0  0
   -2.0789    3.6045   -1.2863 N   0  0  2  0  0  0  0  0  0  0  0  0
    2.2814   -3.9981   -1.9623 N   0  0  2  0  0  0  0  0  0  0  0  0
   -1.6620    2.2643   -0.8098 C   0  0  2  0  0  0  0  0  0  0  0  0
    2.1780   -4.0216   -0.4811 C   0  0  2  0  0  0  0  0  0  0  0  0
   -2.8085    1.2630   -0.6800 C   0  0  0  0  0  0  0  0  0  0  0  0
    1.0210   -3.2094    0.1085 C   0  0  0  0  0  0  0  0  0  0  0  0
    0.2526   -2.3501   -0.6983 C   0  0  0  0  0  0  0  0  0  0  0  0
    0.4873   -2.3504   -2.1850 C   0  0  0  0  0  0  0  0  0  0  0  0
    1.0162   -3.7097   -2.6372 C   0  0  0  0  0  0  0  0  0  0  0  0
   -3.2549    4.1029   -0.5640 C   0  0  0  0  0  0  0  0  0  0  0  0
   -4.1328    1.7164   -0.5346 C   0  0  0  0  0  0  0  0  0  0  0  0
   -4.4719    3.1804   -0.6454 C   0  0  0  0  0  0  0  0  0  0  0  0
   -0.9110    2.3839    0.5433 C   0  0  0  0  0  0  0  0  0  0  0  0
    3.5422   -3.5559    0.1260 C   0  0  0  0  0  0  0  0  0  0  0  0
   -2.5636   -0.1270   -0.6781 C   0  0  0  0  0  0  0  0  0  0  0  0
   -0.6988   -1.4973   -0.1088 C   0  0  0  0  0  0  0  0  0  0  0  0
    0.7430   -3.2817    1.4824 C   0  0  0  0  0  0  0  0  0  0  0  0
   -2.2675    3.6403   -2.7368 C   0  0  0  0  0  0  0  0  0  0  0  0
   -5.1749    0.7889   -0.3809 C   0  0  0  0  0  0  0  0  0  0  0  0
    2.8625   -5.2362   -2.4876 C   0  0  0  0  0  0  0  0  0  0  0  0
    0.4566    3.0144    0.4271 C   0  0  0  0  0  0  0  0  0  0  0  0
   -0.9308   -1.5520    1.2687 C   0  0  0  0  0  0  0  0  0  0  0  0
   -3.6135   -1.0424   -0.5479 C   0  0  0  0  0  0  0  0  0  0  0  0
    3.8005   -2.0651    0.0233 C   0  0  0  0  0  0  0  0  0  0  0  0
   -0.2283   -2.4620    2.0553 C   0  0  0  0  0  0  0  0  0  0  0  0
   -4.9153   -0.5805   -0.3819 C   0  0  0  0  0  0  0  0  0  0  0  0
    1.5508    2.2365    0.0192 C   0  0  0  0  0  0  0  0  0  0  0  0
    0.6575    4.3630    0.7410 C   0  0  0  0  0  0  0  0  0  0  0  0
    3.6612   -1.2490    1.1564 C   0  0  0  0  0  0  0  0  0  0  0  0
    4.1145   -1.4684   -1.2062 C   0  0  0  0  0  0  0  0  0  0  0  0
    2.8397    2.7842   -0.0180 C   0  0  0  0  0  0  0  0  0  0  0  0
    3.9635    0.7190   -0.2033 C   0  0  0  0  0  0  0  0  0  0  0  0
    3.7535    0.1382    1.0490 C   0  0  0  0  0  0  0  0  0  0  0  0
    4.1930   -0.0801   -1.3217 C   0  0  0  0  0  0  0  0  0  0  0  0
    1.9348    4.9205    0.6641 C   0  0  0  0  0  0  0  0  0  0  0  0
    3.0241    4.1340    0.2881 C   0  0  0  0  0  0  0  0  0  0  0  0
   -1.2673    0.1156    2.9304 C   0  0  0  0  0  0  0  0  0  0  0  0
   -1.4601   -3.4464    3.8357 C   0  0  0  0  0  0  0  0  0  0  0  0
   -6.2854   -1.8747    1.0685 C   0  0  0  0  0  0  0  0  0  0  0  0
    5.0418    4.6664    1.4288 C   0  0  0  0  0  0  0  0  0  0  0  0
   -0.9527    1.8639   -1.5476 H   0  0  0  0  0  0  0  0  0  0  0  0
    1.9960   -5.0599   -0.1676 H   0  0  0  0  0  0  0  0  0  0  0  0
   -0.4510   -2.1590   -2.7187 H   0  0  0  0  0  0  0  0  0  0  0  0
    1.1896   -1.5488   -2.4425 H   0  0  0  0  0  0  0  0  0  0  0  0
    0.2760   -4.4975   -2.4411 H   0  0  0  0  0  0  0  0  0  0  0  0
    1.1705   -3.6682   -3.7225 H   0  0  0  0  0  0  0  0  0  0  0  0
   -3.5272    5.1031   -0.9243 H   0  0  0  0  0  0  0  0  0  0  0  0
   -2.9922    4.2532    0.4900 H   0  0  0  0  0  0  0  0  0  0  0  0
   -4.9806    3.3368   -1.6052 H   0  0  0  0  0  0  0  0  0  0  0  0
   -5.1765    3.4561    0.1486 H   0  0  0  0  0  0  0  0  0  0  0  0
   -0.7261    1.3819    0.9182 H   0  0  0  0  0  0  0  0  0  0  0  0
   -1.5052    2.8852    1.3155 H   0  0  0  0  0  0  0  0  0  0  0  0
    4.3833   -4.0875   -0.3362 H   0  0  0  0  0  0  0  0  0  0  0  0
    3.5806   -3.8506    1.1836 H   0  0  0  0  0  0  0  0  0  0  0  0
    1.3088   -3.9614    2.1156 H   0  0  0  0  0  0  0  0  0  0  0  0
   -2.5364    4.6508   -3.0640 H   0  0  0  0  0  0  0  0  0  0  0  0
   -3.0406    2.9491   -3.0884 H   0  0  0  0  0  0  0  0  0  0  0  0
   -1.3310    3.3904   -3.2480 H   0  0  0  0  0  0  0  0  0  0  0  0
   -6.2000    1.1402   -0.2828 H   0  0  0  0  0  0  0  0  0  0  0  0
    3.8448   -5.4358   -2.0484 H   0  0  0  0  0  0  0  0  0  0  0  0
    3.0201   -5.1566   -3.5692 H   0  0  0  0  0  0  0  0  0  0  0  0
    2.2191   -6.1030   -2.2981 H   0  0  0  0  0  0  0  0  0  0  0  0
    1.3781    1.1979   -0.2517 H   0  0  0  0  0  0  0  0  0  0  0  0
   -0.1771    4.9857    1.0524 H   0  0  0  0  0  0  0  0  0  0  0  0
    3.4427   -1.6869    2.1272 H   0  0  0  0  0  0  0  0  0  0  0  0
    4.2636   -2.0767   -2.0941 H   0  0  0  0  0  0  0  0  0  0  0  0
    3.6195    0.7532    1.9344 H   0  0  0  0  0  0  0  0  0  0  0  0
    4.3952    0.3688   -2.2901 H   0  0  0  0  0  0  0  0  0  0  0  0
   -2.5973   -2.5441   -1.1575 H   0  0  0  0  0  0  0  0  0  0  0  0
    2.0749    5.9703    0.9085 H   0  0  0  0  0  0  0  0  0  0  0  0
   -0.1973    0.3152    2.8044 H   0  0  0  0  0  0  0  0  0  0  0  0
   -1.4470   -0.3348    3.9111 H   0  0  0  0  0  0  0  0  0  0  0  0
   -1.8135    1.0629    2.9192 H   0  0  0  0  0  0  0  0  0  0  0  0
   -1.1968   -4.4728    3.5614 H   0  0  0  0  0  0  0  0  0  0  0  0
   -2.4312   -3.1802    3.4064 H   0  0  0  0  0  0  0  0  0  0  0  0
   -1.5299   -3.3819    4.9249 H   0  0  0  0  0  0  0  0  0  0  0  0
   -5.4364   -2.3820    1.5378 H   0  0  0  0  0  0  0  0  0  0  0  0
   -7.1211   -2.5769    1.0050 H   0  0  0  0  0  0  0  0  0  0  0  0
   -6.5931   -1.0175    1.6758 H   0  0  0  0  0  0  0  0  0  0  0  0
    4.5442    5.2267    2.2266 H   0  0  0  0  0  0  0  0  0  0  0  0
    6.0071    5.1361    1.2214 H   0  0  0  0  0  0  0  0  0  0  0  0
    5.2167    3.6341    1.7480 H   0  0  0  0  0  0  0  0  0  0  0  0
  1 22  1  0  0  0  0
  1 23  1  0  0  0  0
  2 29  1  0  0  0  0
  2 44  1  0  0  0  0
  3 32  1  0  0  0  0
  3 45  1  0  0  0  0
  4 33  1  0  0  0  0
  4 46  1  0  0  0  0
  5 30  1  0  0  0  0
  5 76  1  0  0  0  0
  6 38  1  0  0  0  0
  6 39  1  0  0  0  0
  7 43  1  0  0  0  0
  7 47  1  0  0  0  0
  8 10  1  0  0  0  0
  8 17  1  0  0  0  0
  8 25  1  0  0  0  0
  9 11  1  0  0  0  0
  9 16  1  0  0  0  0
  9 27  1  0  0  0  0
 10 12  1  0  0  0  0
 10 20  1  0  0  0  0
 10 48  1  0  0  0  0
 11 13  1  0  0  0  0
 11 21  1  0  0  0  0
 11 49  1  0  0  0  0
 12 18  1  0  0  0  0
 12 22  2  0  0  0  0
 13 14  1  0  0  0  0
 13 24  2  0  0  0  0
 14 15  1  0  0  0  0
 14 23  2  0  0  0  0
 15 16  1  0  0  0  0
 15 50  1  0  0  0  0
 15 51  1  0  0  0  0
 16 52  1  0  0  0  0
 16 53  1  0  0  0  0
 17 19  1  0  0  0  0
 17 54  1  0  0  0  0
 17 55  1  0  0  0  0
 18 19  1  0  0  0  0
 18 26  2  0  0  0  0
 19 56  1  0  0  0  0
 19 57  1  0  0  0  0
 20 28  1  0  0  0  0
 20 58  1  0  0  0  0
 20 59  1  0  0  0  0
 21 31  1  0  0  0  0
 21 60  1  0  0  0  0
 21 61  1  0  0  0  0
 22 30  1  0  0  0  0
 23 29  1  0  0  0  0
 24 32  1  0  0  0  0
 24 62  1  0  0  0  0
 25 63  1  0  0  0  0
 25 64  1  0  0  0  0
 25 65  1  0  0  0  0
 26 33  1  0  0  0  0
 26 66  1  0  0  0  0
 27 67  1  0  0  0  0
 27 68  1  0  0  0  0
 27 69  1  0  0  0  0
 28 34  2  0  0  0  0
 28 35  1  0  0  0  0
 29 32  2  0  0  0  0
 30 33  2  0  0  0  0
 31 36  2  0  0  0  0
 31 37  1  0  0  0  0
 34 38  1  0  0  0  0
 34 70  1  0  0  0  0
 35 42  2  0  0  0  0
 35 71  1  0  0  0  0
 36 40  1  0  0  0  0
 36 72  1  0  0  0  0
 37 41  2  0  0  0  0
 37 73  1  0  0  0  0
 38 43  2  0  0  0  0
 39 40  2  0  0  0  0
 39 41  1  0  0  0  0
 40 74  1  0  0  0  0
 41 75  1  0  0  0  0
 42 43  1  0  0  0  0
 42 77  1  0  0  0  0
 44 78  1  0  0  0  0
 44 79  1  0  0  0  0
 44 80  1  0  0  0  0
 45 81  1  0  0  0  0
 45 82  1  0  0  0  0
 45 83  1  0  0  0  0
 46 84  1  0  0  0  0
 46 85  1  0  0  0  0
 46 86  1  0  0  0  0
 47 87  1  0  0  0  0
 47 88  1  0  0  0  0
 47 89  1  0  0  0  0
M  END
> <PUBCHEM_COMPOUND_CID>
5321920

> <PUBCHEM_CONFORMER_RMSD>
1

> <PUBCHEM_CONFORMER_DIVERSEORDER>
1
6
5
4
2
3

> <PUBCHEM_MMFF94_PARTIAL_CHARGES>
57
1 -0.17
10 0.41
11 0.41
12 -0.14
13 -0.14
14 -0.14
15 0.14
16 0.27
17 0.27
18 -0.14
19 0.14
2 -0.36
20 0.14
21 0.14
22 0.08
23 0.08
24 -0.15
25 0.27
26 -0.15
27 0.27
28 -0.14
29 0.08
3 -0.36
30 0.08
31 -0.14
32 0.08
33 0.08
34 -0.15
35 -0.15
36 -0.15
37 -0.15
38 0.08
39 0.08
4 -0.36
40 -0.15
41 -0.15
42 -0.15
43 0.08
44 0.28
45 0.28
46 0.28
47 0.28
5 -0.53
6 -0.17
62 0.15
66 0.15
7 -0.36
70 0.15
71 0.15
72 0.15
73 0.15
74 0.15
75 0.15
76 0.45
77 0.15
8 -0.81
9 -0.81

> <PUBCHEM_EFFECTIVE_ROTOR_COUNT>
6

> <PUBCHEM_PHARMACOPHORE_FEATURES>
15
1 1 acceptor
1 2 acceptor
1 3 acceptor
1 4 acceptor
1 5 donor
1 6 acceptor
1 7 acceptor
1 8 cation
1 9 cation
6 12 18 22 26 30 33 rings
6 13 14 23 24 29 32 rings
6 28 34 35 38 42 43 rings
6 31 36 37 39 40 41 rings
6 8 10 12 17 18 19 rings
6 9 11 13 14 15 16 rings

> <PUBCHEM_HEAVY_ATOM_COUNT>
47

> <PUBCHEM_ATOM_DEF_STEREO_COUNT>
2

> <PUBCHEM_ATOM_UDEF_STEREO_COUNT>
0

> <PUBCHEM_BOND_DEF_STEREO_COUNT>
0

> <PUBCHEM_BOND_UDEF_STEREO_COUNT>
0

> <PUBCHEM_ISOTOPIC_ATOM_COUNT>
0

> <PUBCHEM_COMPONENT_COUNT>
1

> <PUBCHEM_CACTVS_TAUTO_COUNT>
3

> <PUBCHEM_CONFORMER_ID>
005134C000000001

> <PUBCHEM_MMFF94_ENERGY>
213.472

> <PUBCHEM_FEATURE_SELFOVERLAP>
76.183

> <PUBCHEM_SHAPE_FINGERPRINT>
10653451 467 17899980727531370729
10675989 125 18338507543724720984
11513181 2 18199746028124239916
12156800 1 16403863049119084210
1361 2 18125435556204166855
14725015 67 18188195555247589992
15200665 1 17764301047977089497
15297060 5 14885653639748390418
15320467 1 18267860764943917972
15351339 4 18118114767099876432
17909252 39 17985828125495579046
19311894 1 17691409611823777119
20764821 26 17834416531033675764
21133410 32 16881930709704332618
23559900 14 17624405386207416815
354706 132 17532388469016566790
463206 1 17905326226210980220
5265222 85 18265343974454834676
5776283 40 18338248179977557316

> <PUBCHEM_SHAPE_MULTIPOLES>
916.19
10.02
8.43
2.56
7.2
6.78
-1.35
-0.03
2.15
-6.91
0.02
-0.07
-2.96
4.27

> <PUBCHEM_SHAPE_SELFOVERLAP>
2017.599

> <PUBCHEM_SHAPE_VOLUME>
492.7

> <PUBCHEM_COORDINATE_TYPE>
2
5
10

$$$$
