179390
  -OEChem-09102000273D

 89 95  0     1  0  0  0  0  0999 V2000
    0.8720   -0.0340   -0.1322 O   0  0  0  0  0  0  0  0  0  0  0  0
    5.7602    0.9079    2.2719 O   0  0  0  0  0  0  0  0  0  0  0  0
    1.1003    1.7538    2.0210 O   0  0  0  0  0  0  0  0  0  0  0  0
    3.5268    2.2081    3.1718 O   0  0  0  0  0  0  0  0  0  0  0  0
    1.9247    1.6855   -2.1334 O   0  0  0  0  0  0  0  0  0  0  0  0
   -3.0252   -3.3187   -0.3975 O   0  0  0  0  0  0  0  0  0  0  0  0
   -4.4652   -3.5721    1.9292 O   0  0  0  0  0  0  0  0  0  0  0  0
    4.4324   -1.6017   -1.8460 N   0  0  1  0  0  0  0  0  0  0  0  0
   -3.8788    3.8415   -0.3325 N   0  0  2  0  0  0  0  0  0  0  0  0
    3.1346   -1.5327   -1.1311 C   0  0  2  0  0  0  0  0  0  0  0  0
   -3.3407    2.4791   -0.0941 C   0  0  2  0  0  0  0  0  0  0  0  0
    3.2217   -0.4987   -0.0037 C   0  0  0  0  0  0  0  0  0  0  0  0
    5.5215   -1.9839   -0.9475 C   0  0  0  0  0  0  0  0  0  0  0  0
    4.4659   -0.2569    0.6164 C   0  0  0  0  0  0  0  0  0  0  0  0
    5.7345   -0.8976    0.1084 C   0  0  0  0  0  0  0  0  0  0  0  0
   -1.9169    2.2910   -0.6077 C   0  0  0  0  0  0  0  0  0  0  0  0
    2.6435   -2.9047   -0.5740 C   0  0  0  0  0  0  0  0  0  0  0  0
   -3.6483    4.2837   -1.7123 C   0  0  0  0  0  0  0  0  0  0  0  0
   -1.3891    3.1384   -1.6013 C   0  0  0  0  0  0  0  0  0  0  0  0
   -2.1709    4.3237   -2.1049 C   0  0  0  0  0  0  0  0  0  0  0  0
   -4.3180    1.4495   -0.7309 C   0  0  0  0  0  0  0  0  0  0  0  0
    2.0971    0.2195    0.4460 C   0  0  0  0  0  0  0  0  0  0  0  0
   -1.1190    1.2509   -0.1098 C   0  0  0  0  0  0  0  0  0  0  0  0
    4.5564    0.6588    1.6765 C   0  0  0  0  0  0  0  0  0  0  0  0
    4.4009   -2.4288   -3.0470 C   0  0  0  0  0  0  0  0  0  0  0  0
    0.1732    1.0535   -0.6005 C   0  0  0  0  0  0  0  0  0  0  0  0
    1.1386   -3.0358   -0.5064 C   0  0  0  0  0  0  0  0  0  0  0  0
    2.1963    1.1149    1.5188 C   0  0  0  0  0  0  0  0  0  0  0  0
   -0.0875    2.9275   -2.0836 C   0  0  0  0  0  0  0  0  0  0  0  0
   -3.3974    4.8102    0.6519 C   0  0  0  0  0  0  0  0  0  0  0  0
    3.4262    1.3333    2.1301 C   0  0  0  0  0  0  0  0  0  0  0  0
   -4.3438    0.1079   -0.0331 C   0  0  0  0  0  0  0  0  0  0  0  0
    0.6893    1.8793   -1.5966 C   0  0  0  0  0  0  0  0  0  0  0  0
    0.3893   -3.1507   -1.6880 C   0  0  0  0  0  0  0  0  0  0  0  0
    0.4728   -3.0424    0.7268 C   0  0  0  0  0  0  0  0  0  0  0  0
   -3.6665   -0.9951   -0.5676 C   0  0  0  0  0  0  0  0  0  0  0  0
   -5.0520   -0.0453    1.1689 C   0  0  0  0  0  0  0  0  0  0  0  0
   -3.6834   -2.2195    0.1088 C   0  0  0  0  0  0  0  0  0  0  0  0
   -1.0010   -3.2468   -1.6412 C   0  0  0  0  0  0  0  0  0  0  0  0
   -0.9192   -3.1279    0.7776 C   0  0  0  0  0  0  0  0  0  0  0  0
   -1.6518   -3.2094   -0.4093 C   0  0  0  0  0  0  0  0  0  0  0  0
   -5.0933   -1.2803    1.8190 C   0  0  0  0  0  0  0  0  0  0  0  0
   -4.4153   -2.3734    1.2857 C   0  0  0  0  0  0  0  0  0  0  0  0
    0.3974    1.0995    3.0743 C   0  0  0  0  0  0  0  0  0  0  0  0
    3.8108    3.5674    2.8496 C   0  0  0  0  0  0  0  0  0  0  0  0
    2.0102    0.8372   -3.2775 C   0  0  0  0  0  0  0  0  0  0  0  0
   -5.5133   -4.4655    1.5569 C   0  0  0  0  0  0  0  0  0  0  0  0
    2.4035   -1.1780   -1.8530 H   0  0  0  0  0  0  0  0  0  0  0  0
   -3.3315    2.3155    0.9926 H   0  0  0  0  0  0  0  0  0  0  0  0
    6.4610   -2.1042   -1.5019 H   0  0  0  0  0  0  0  0  0  0  0  0
    5.3228   -2.9495   -0.4662 H   0  0  0  0  0  0  0  0  0  0  0  0
    6.3556   -0.1072   -0.3338 H   0  0  0  0  0  0  0  0  0  0  0  0
    6.2894   -1.3505    0.9389 H   0  0  0  0  0  0  0  0  0  0  0  0
    3.0786   -3.0994    0.4155 H   0  0  0  0  0  0  0  0  0  0  0  0
    2.9813   -3.7364   -1.2025 H   0  0  0  0  0  0  0  0  0  0  0  0
   -4.0998    5.2702   -1.8762 H   0  0  0  0  0  0  0  0  0  0  0  0
   -4.1836    3.6132   -2.3966 H   0  0  0  0  0  0  0  0  0  0  0  0
   -1.7088    5.2331   -1.7007 H   0  0  0  0  0  0  0  0  0  0  0  0
   -2.0986    4.3756   -3.1980 H   0  0  0  0  0  0  0  0  0  0  0  0
   -4.1004    1.3062   -1.7980 H   0  0  0  0  0  0  0  0  0  0  0  0
   -5.3469    1.8358   -0.6927 H   0  0  0  0  0  0  0  0  0  0  0  0
   -1.5028    0.5883    0.6613 H   0  0  0  0  0  0  0  0  0  0  0  0
    4.3418   -3.5001   -2.8322 H   0  0  0  0  0  0  0  0  0  0  0  0
    5.3077   -2.2606   -3.6391 H   0  0  0  0  0  0  0  0  0  0  0  0
    3.5566   -2.1556   -3.6893 H   0  0  0  0  0  0  0  0  0  0  0  0
    0.3175    3.5873   -2.8481 H   0  0  0  0  0  0  0  0  0  0  0  0
   -2.3079    4.9188    0.6554 H   0  0  0  0  0  0  0  0  0  0  0  0
   -3.7107    4.5144    1.6594 H   0  0  0  0  0  0  0  0  0  0  0  0
   -3.8397    5.7958    0.4684 H   0  0  0  0  0  0  0  0  0  0  0  0
    0.8888   -3.1612   -2.6537 H   0  0  0  0  0  0  0  0  0  0  0  0
    1.0330   -2.9658    1.6552 H   0  0  0  0  0  0  0  0  0  0  0  0
   -3.1215   -0.8961   -1.5029 H   0  0  0  0  0  0  0  0  0  0  0  0
   -5.5839    0.7985    1.6017 H   0  0  0  0  0  0  0  0  0  0  0  0
    6.4942    0.5170    1.7749 H   0  0  0  0  0  0  0  0  0  0  0  0
   -1.5673   -3.3342   -2.5640 H   0  0  0  0  0  0  0  0  0  0  0  0
   -1.4166   -3.1314    1.7430 H   0  0  0  0  0  0  0  0  0  0  0  0
   -5.6565   -1.3802    2.7430 H   0  0  0  0  0  0  0  0  0  0  0  0
   -0.5059    1.6757    3.2926 H   0  0  0  0  0  0  0  0  0  0  0  0
    1.0132    1.0601    3.9781 H   0  0  0  0  0  0  0  0  0  0  0  0
    0.1032    0.0872    2.7788 H   0  0  0  0  0  0  0  0  0  0  0  0
    4.7754    3.6500    2.3390 H   0  0  0  0  0  0  0  0  0  0  0  0
    3.8592    4.1372    3.7816 H   0  0  0  0  0  0  0  0  0  0  0  0
    3.0179    3.9886    2.2235 H   0  0  0  0  0  0  0  0  0  0  0  0
    1.7787    1.4257   -4.1715 H   0  0  0  0  0  0  0  0  0  0  0  0
    1.3114   -0.0033   -3.2235 H   0  0  0  0  0  0  0  0  0  0  0  0
    3.0362    0.4758   -3.3721 H   0  0  0  0  0  0  0  0  0  0  0  0
   -5.4380   -4.7281    0.4970 H   0  0  0  0  0  0  0  0  0  0  0  0
   -6.4902   -4.0174    1.7648 H   0  0  0  0  0  0  0  0  0  0  0  0
   -5.4131   -5.3777    2.1513 H   0  0  0  0  0  0  0  0  0  0  0  0
  1 22  1  0  0  0  0
  1 26  1  0  0  0  0
  2 24  1  0  0  0  0
  2 74  1  0  0  0  0
  3 28  1  0  0  0  0
  3 44  1  0  0  0  0
  4 31  1  0  0  0  0
  4 45  1  0  0  0  0
  5 33  1  0  0  0  0
  5 46  1  0  0  0  0
  6 38  1  0  0  0  0
  6 41  1  0  0  0  0
  7 43  1  0  0  0  0
  7 47  1  0  0  0  0
  8 10  1  0  0  0  0
  8 13  1  0  0  0  0
  8 25  1  0  0  0  0
  9 11  1  0  0  0  0
  9 18  1  0  0  0  0
  9 30  1  0  0  0  0
 10 12  1  0  0  0  0
 10 17  1  0  0  0  0
 10 48  1  0  0  0  0
 11 16  1  0  0  0  0
 11 21  1  0  0  0  0
 11 49  1  0  0  0  0
 12 14  2  0  0  0  0
 12 22  1  0  0  0  0
 13 15  1  0  0  0  0
 13 50  1  0  0  0  0
 13 51  1  0  0  0  0
 14 15  1  0  0  0  0
 14 24  1  0  0  0  0
 15 52  1  0  0  0  0
 15 53  1  0  0  0  0
 16 19  1  0  0  0  0
 16 23  2  0  0  0  0
 17 27  1  0  0  0  0
 17 54  1  0  0  0  0
 17 55  1  0  0  0  0
 18 20  1  0  0  0  0
 18 56  1  0  0  0  0
 18 57  1  0  0  0  0
 19 20  1  0  0  0  0
 19 29  2  0  0  0  0
 20 58  1  0  0  0  0
 20 59  1  0  0  0  0
 21 32  1  0  0  0  0
 21 60  1  0  0  0  0
 21 61  1  0  0  0  0
 22 28  2  0  0  0  0
 23 26  1  0  0  0  0
 23 62  1  0  0  0  0
 24 31  2  0  0  0  0
 25 63  1  0  0  0  0
 25 64  1  0  0  0  0
 25 65  1  0  0  0  0
 26 33  2  0  0  0  0
 27 34  2  0  0  0  0
 27 35  1  0  0  0  0
 28 31  1  0  0  0  0
 29 33  1  0  0  0  0
 29 66  1  0  0  0  0
 30 67  1  0  0  0  0
 30 68  1  0  0  0  0
 30 69  1  0  0  0  0
 32 36  2  0  0  0  0
 32 37  1  0  0  0  0
 34 39  1  0  0  0  0
 34 70  1  0  0  0  0
 35 40  2  0  0  0  0
 35 71  1  0  0  0  0
 36 38  1  0  0  0  0
 36 72  1  0  0  0  0
 37 42  2  0  0  0  0
 37 73  1  0  0  0  0
 38 43  2  0  0  0  0
 39 41  2  0  0  0  0
 39 75  1  0  0  0  0
 40 41  1  0  0  0  0
 40 76  1  0  0  0  0
 42 43  1  0  0  0  0
 42 77  1  0  0  0  0
 44 78  1  0  0  0  0
 44 79  1  0  0  0  0
 44 80  1  0  0  0  0
 45 81  1  0  0  0  0
 45 82  1  0  0  0  0
 45 83  1  0  0  0  0
 46 84  1  0  0  0  0
 46 85  1  0  0  0  0
 46 86  1  0  0  0  0
 47 87  1  0  0  0  0
 47 88  1  0  0  0  0
 47 89  1  0  0  0  0
M  END
> <PUBCHEM_COMPOUND_CID>
179390

> <PUBCHEM_CONFORMER_RMSD>
1

> <PUBCHEM_CONFORMER_DIVERSEORDER>
1
3
2
4

> <PUBCHEM_MMFF94_PARTIAL_CHARGES>
57
1 -0.17
10 0.41
11 0.41
12 -0.14
13 0.27
14 -0.14
15 0.14
16 -0.14
17 0.14
18 0.27
19 -0.14
2 -0.53
20 0.14
21 0.14
22 0.08
23 -0.15
24 0.08
25 0.27
26 0.08
27 -0.14
28 0.08
29 -0.15
3 -0.36
30 0.27
31 0.08
32 -0.14
33 0.08
34 -0.15
35 -0.15
36 -0.15
37 -0.15
38 0.08
39 -0.15
4 -0.36
40 -0.15
41 0.08
42 -0.15
43 0.08
44 0.28
45 0.28
46 0.28
47 0.28
5 -0.36
6 -0.17
62 0.15
66 0.15
7 -0.36
70 0.15
71 0.15
72 0.15
73 0.15
74 0.45
75 0.15
76 0.15
77 0.15
8 -0.81
9 -0.81

> <PUBCHEM_EFFECTIVE_ROTOR_COUNT>
6

> <PUBCHEM_PHARMACOPHORE_FEATURES>
15
1 1 acceptor
1 2 donor
1 3 acceptor
1 4 acceptor
1 5 acceptor
1 6 acceptor
1 7 acceptor
1 8 cation
1 9 cation
6 12 14 22 24 28 31 rings
6 16 19 23 26 29 33 rings
6 27 34 35 39 40 41 rings
6 32 36 37 38 42 43 rings
6 8 10 12 13 14 15 rings
6 9 11 16 18 19 20 rings

> <PUBCHEM_HEAVY_ATOM_COUNT>
47

> <PUBCHEM_ATOM_DEF_STEREO_COUNT>
2

> <PUBCHEM_ATOM_UDEF_STEREO_COUNT>
0

> <PUBCHEM_BOND_DEF_STEREO_COUNT>
0

> <PUBCHEM_BOND_UDEF_STEREO_COUNT>
0

> <PUBCHEM_ISOTOPIC_ATOM_COUNT>
0

> <PUBCHEM_COMPONENT_COUNT>
1

> <PUBCHEM_CACTVS_TAUTO_COUNT>
3

> <PUBCHEM_CONFORMER_ID>
0002BCBE00000001

> <PUBCHEM_MMFF94_ENERGY>
209.6094

> <PUBCHEM_FEATURE_SELFOVERLAP>
76.186

> <PUBCHEM_SHAPE_FINGERPRINT>
10462674 125 17055810896687024399
10842077 115 18126534917271360617
12422481 6 18339905062011342570
12522641 24 17334201335883354129
131258 38 16958161142762724795
13383668 90 15581479728211476150
13782708 43 18339921520457577210
14040221 97 18271523200528733664
14117953 113 18334299760934206823
14932702 115 18122361076816557174
15001296 14 18114758125777892685
15406563 190 17751656354983090325
15968369 153 18343021121172225279
16067689 391 16552863122513236374
16067690 210 17749399194843620672
20764821 26 18189917451187875943
25223398 141 18262235513448449630
3383291 50 18261110752277730497
508706 21 18337667525472368839
552612 73 18271238448096616968
613672 6 18190730020445533479

> <PUBCHEM_SHAPE_MULTIPOLES>
916.19
11.71
6.63
3.01
1.93
0.82
0.47
-3.28
3.83
-8.12
-0.71
2.96
1.68
6.11

> <PUBCHEM_SHAPE_SELFOVERLAP>
2016.926

> <PUBCHEM_SHAPE_VOLUME>
493.6

> <PUBCHEM_COORDINATE_TYPE>
2
5
10

$$$$
