44584030
  -OEChem-09102004133D

 91 96  0     1  0  0  0  0  0999 V2000
    2.6990   -2.3531   -1.9592 O   0  0  0  0  0  0  0  0  0  0  0  0
    5.7471   -1.7357    1.6567 O   0  0  0  0  0  0  0  0  0  0  0  0
    4.1878   -3.4006    0.0919 O   0  0  0  0  0  0  0  0  0  0  0  0
   -1.2821   -3.9213    2.3342 O   0  0  0  0  0  0  0  0  0  0  0  0
   -1.4890    1.8478    1.9691 O   0  0  0  0  0  0  0  0  0  0  0  0
    0.1330   -3.1979    0.0563 O   0  0  0  0  0  0  0  0  0  0  0  0
   -3.6327    3.6088    2.1425 O   0  0  0  0  0  0  0  0  0  0  0  0
    3.3565    2.6905   -1.9593 N   0  0  2  0  0  0  0  0  0  0  0  0
   -5.3609   -0.9622   -1.7336 N   0  0  2  0  0  0  0  0  0  0  0  0
    4.2505    2.2288   -0.8630 C   0  0  2  0  0  0  0  0  0  0  0  0
   -3.9198   -1.2504   -1.9666 C   0  0  2  0  0  0  0  0  0  0  0  0
    4.2293    0.7176   -0.6179 C   0  0  0  0  0  0  0  0  0  0  0  0
    3.2949    1.7328   -3.0697 C   0  0  0  0  0  0  0  0  0  0  0  0
    2.6865    0.4211   -2.5845 C   0  0  0  0  0  0  0  0  0  0  0  0
   -3.2192   -1.9696   -0.8108 C   0  0  0  0  0  0  0  0  0  0  0  0
    3.4802   -0.1410   -1.4411 C   0  0  0  0  0  0  0  0  0  0  0  0
   -6.0272   -2.0272   -0.9747 C   0  0  0  0  0  0  0  0  0  0  0  0
    3.8460    2.9674    0.4274 C   0  0  0  0  0  0  0  0  0  0  0  0
   -5.4110   -2.1302    0.4166 C   0  0  0  0  0  0  0  0  0  0  0  0
   -3.9346   -2.3862    0.3253 C   0  0  0  0  0  0  0  0  0  0  0  0
   -3.2053    0.0844   -2.2538 C   0  0  0  0  0  0  0  0  0  0  0  0
    5.0056    0.1517    0.4085 C   0  0  0  0  0  0  0  0  0  0  0  0
    3.7654    4.0017   -2.4778 C   0  0  0  0  0  0  0  0  0  0  0  0
    3.4568   -1.5201   -1.1872 C   0  0  0  0  0  0  0  0  0  0  0  0
    2.4416    2.6733    0.8332 C   0  0  0  0  0  0  0  0  0  0  0  0
   -6.0824   -0.7467   -2.9938 C   0  0  0  0  0  0  0  0  0  0  0  0
   -1.8493   -2.2758   -0.8882 C   0  0  0  0  0  0  0  0  0  0  0  0
   -3.3157    1.0186   -1.0868 C   0  0  0  0  0  0  0  0  0  0  0  0
   -3.2707   -3.0247    1.3829 C   0  0  0  0  0  0  0  0  0  0  0  0
    4.9908   -1.2239    0.6457 C   0  0  0  0  0  0  0  0  0  0  0  0
    4.2091   -2.0584   -0.1461 C   0  0  0  0  0  0  0  0  0  0  0  0
   -1.1978   -2.9263    0.1610 C   0  0  0  0  0  0  0  0  0  0  0  0
   -1.9065   -3.2921    1.3004 C   0  0  0  0  0  0  0  0  0  0  0  0
   -2.3430    1.0032   -0.0871 C   0  0  0  0  0  0  0  0  0  0  0  0
    1.3981    3.4720    0.3656 C   0  0  0  0  0  0  0  0  0  0  0  0
    2.1716    1.5986    1.6805 C   0  0  0  0  0  0  0  0  0  0  0  0
   -4.3910    1.9029   -1.0001 C   0  0  0  0  0  0  0  0  0  0  0  0
   -2.4454    1.8721    0.9991 C   0  0  0  0  0  0  0  0  0  0  0  0
   -0.1854    2.1218    1.5929 C   0  0  0  0  0  0  0  0  0  0  0  0
    0.0846    3.1965    0.7454 C   0  0  0  0  0  0  0  0  0  0  0  0
    0.8582    1.3229    2.0604 C   0  0  0  0  0  0  0  0  0  0  0  0
   -4.4935    2.7719    0.0862 C   0  0  0  0  0  0  0  0  0  0  0  0
   -3.5207    2.7566    1.0857 C   0  0  0  0  0  0  0  0  0  0  0  0
    6.5194   -0.8108    2.4200 C   0  0  0  0  0  0  0  0  0  0  0  0
    5.1539   -4.1945   -0.5936 C   0  0  0  0  0  0  0  0  0  0  0  0
   -0.7207   -3.0947    3.3524 C   0  0  0  0  0  0  0  0  0  0  0  0
   -4.7617    4.4804    2.1551 C   0  0  0  0  0  0  0  0  0  0  0  0
    5.2903    2.4782   -1.1176 H   0  0  0  0  0  0  0  0  0  0  0  0
   -3.8213   -1.9133   -2.8379 H   0  0  0  0  0  0  0  0  0  0  0  0
    4.2922    1.5636   -3.4986 H   0  0  0  0  0  0  0  0  0  0  0  0
    2.6557    2.1225   -3.8718 H   0  0  0  0  0  0  0  0  0  0  0  0
    2.6881   -0.2638   -3.4402 H   0  0  0  0  0  0  0  0  0  0  0  0
    1.6477    0.5702   -2.2648 H   0  0  0  0  0  0  0  0  0  0  0  0
   -5.9582   -2.9885   -1.5022 H   0  0  0  0  0  0  0  0  0  0  0  0
   -7.0929   -1.7968   -0.8527 H   0  0  0  0  0  0  0  0  0  0  0  0
    3.9720    4.0517    0.3146 H   0  0  0  0  0  0  0  0  0  0  0  0
    4.5216    2.7223    1.2568 H   0  0  0  0  0  0  0  0  0  0  0  0
   -5.5775   -1.2044    0.9814 H   0  0  0  0  0  0  0  0  0  0  0  0
   -5.9025   -2.9466    0.9589 H   0  0  0  0  0  0  0  0  0  0  0  0
   -3.6104    0.5693   -3.1504 H   0  0  0  0  0  0  0  0  0  0  0  0
   -2.1467   -0.0695   -2.4987 H   0  0  0  0  0  0  0  0  0  0  0  0
    5.6172    0.8361    0.9856 H   0  0  0  0  0  0  0  0  0  0  0  0
    3.7475    4.7725   -1.7024 H   0  0  0  0  0  0  0  0  0  0  0  0
    3.0677    4.3399   -3.2527 H   0  0  0  0  0  0  0  0  0  0  0  0
    4.7713    3.9749   -2.9123 H   0  0  0  0  0  0  0  0  0  0  0  0
   -5.6730    0.0934   -3.5616 H   0  0  0  0  0  0  0  0  0  0  0  0
   -7.1299   -0.4923   -2.7950 H   0  0  0  0  0  0  0  0  0  0  0  0
   -6.0628   -1.6360   -3.6343 H   0  0  0  0  0  0  0  0  0  0  0  0
   -1.2850   -2.0089   -1.7788 H   0  0  0  0  0  0  0  0  0  0  0  0
   -3.8254   -3.3245    2.2692 H   0  0  0  0  0  0  0  0  0  0  0  0
   -1.4903    0.3352   -0.1585 H   0  0  0  0  0  0  0  0  0  0  0  0
    1.5906    4.3223   -0.2827 H   0  0  0  0  0  0  0  0  0  0  0  0
    2.9675    0.9808    2.0833 H   0  0  0  0  0  0  0  0  0  0  0  0
   -5.1508    1.9378   -1.7759 H   0  0  0  0  0  0  0  0  0  0  0  0
   -0.7064    3.8467    0.3822 H   0  0  0  0  0  0  0  0  0  0  0  0
    0.6536    0.4876    2.7245 H   0  0  0  0  0  0  0  0  0  0  0  0
    1.9882   -1.8557   -2.3940 H   0  0  0  0  0  0  0  0  0  0  0  0
   -5.3537    3.4323    0.0859 H   0  0  0  0  0  0  0  0  0  0  0  0
    0.4593   -2.8653   -0.7974 H   0  0  0  0  0  0  0  0  0  0  0  0
    7.2821   -0.3186    1.8070 H   0  0  0  0  0  0  0  0  0  0  0  0
    5.8835   -0.0953    2.9527 H   0  0  0  0  0  0  0  0  0  0  0  0
    7.0516   -1.3892    3.1825 H   0  0  0  0  0  0  0  0  0  0  0  0
    5.0213   -4.1135   -1.6771 H   0  0  0  0  0  0  0  0  0  0  0  0
    6.1685   -3.8916   -0.3162 H   0  0  0  0  0  0  0  0  0  0  0  0
    5.0089   -5.2381   -0.3013 H   0  0  0  0  0  0  0  0  0  0  0  0
    0.0461   -2.4350    2.9339 H   0  0  0  0  0  0  0  0  0  0  0  0
   -1.5019   -2.5015    3.8384 H   0  0  0  0  0  0  0  0  0  0  0  0
   -0.2552   -3.7415    4.1011 H   0  0  0  0  0  0  0  0  0  0  0  0
   -4.7445    5.1751    1.3084 H   0  0  0  0  0  0  0  0  0  0  0  0
   -4.6908    5.0862    3.0645 H   0  0  0  0  0  0  0  0  0  0  0  0
   -5.7020    3.9221    2.2177 H   0  0  0  0  0  0  0  0  0  0  0  0
  1 24  1  0  0  0  0
  1 77  1  0  0  0  0
  2 30  1  0  0  0  0
  2 44  1  0  0  0  0
  3 31  1  0  0  0  0
  3 45  1  0  0  0  0
  4 33  1  0  0  0  0
  4 46  1  0  0  0  0
  5 38  1  0  0  0  0
  5 39  1  0  0  0  0
  6 32  1  0  0  0  0
  6 79  1  0  0  0  0
  7 43  1  0  0  0  0
  7 47  1  0  0  0  0
  8 10  1  0  0  0  0
  8 13  1  0  0  0  0
  8 23  1  0  0  0  0
  9 11  1  0  0  0  0
  9 17  1  0  0  0  0
  9 26  1  0  0  0  0
 10 12  1  0  0  0  0
 10 18  1  0  0  0  0
 10 48  1  0  0  0  0
 11 15  1  0  0  0  0
 11 21  1  0  0  0  0
 11 49  1  0  0  0  0
 12 16  1  0  0  0  0
 12 22  2  0  0  0  0
 13 14  1  0  0  0  0
 13 50  1  0  0  0  0
 13 51  1  0  0  0  0
 14 16  1  0  0  0  0
 14 52  1  0  0  0  0
 14 53  1  0  0  0  0
 15 20  1  0  0  0  0
 15 27  2  0  0  0  0
 16 24  2  0  0  0  0
 17 19  1  0  0  0  0
 17 54  1  0  0  0  0
 17 55  1  0  0  0  0
 18 25  1  0  0  0  0
 18 56  1  0  0  0  0
 18 57  1  0  0  0  0
 19 20  1  0  0  0  0
 19 58  1  0  0  0  0
 19 59  1  0  0  0  0
 20 29  2  0  0  0  0
 21 28  1  0  0  0  0
 21 60  1  0  0  0  0
 21 61  1  0  0  0  0
 22 30  1  0  0  0  0
 22 62  1  0  0  0  0
 23 63  1  0  0  0  0
 23 64  1  0  0  0  0
 23 65  1  0  0  0  0
 24 31  1  0  0  0  0
 25 35  2  0  0  0  0
 25 36  1  0  0  0  0
 26 66  1  0  0  0  0
 26 67  1  0  0  0  0
 26 68  1  0  0  0  0
 27 32  1  0  0  0  0
 27 69  1  0  0  0  0
 28 34  2  0  0  0  0
 28 37  1  0  0  0  0
 29 33  1  0  0  0  0
 29 70  1  0  0  0  0
 30 31  2  0  0  0  0
 32 33  2  0  0  0  0
 34 38  1  0  0  0  0
 34 71  1  0  0  0  0
 35 40  1  0  0  0  0
 35 72  1  0  0  0  0
 36 41  2  0  0  0  0
 36 73  1  0  0  0  0
 37 42  2  0  0  0  0
 37 74  1  0  0  0  0
 38 43  2  0  0  0  0
 39 40  2  0  0  0  0
 39 41  1  0  0  0  0
 40 75  1  0  0  0  0
 41 76  1  0  0  0  0
 42 43  1  0  0  0  0
 42 78  1  0  0  0  0
 44 80  1  0  0  0  0
 44 81  1  0  0  0  0
 44 82  1  0  0  0  0
 45 83  1  0  0  0  0
 45 84  1  0  0  0  0
 45 85  1  0  0  0  0
 46 86  1  0  0  0  0
 46 87  1  0  0  0  0
 46 88  1  0  0  0  0
 47 89  1  0  0  0  0
 47 90  1  0  0  0  0
 47 91  1  0  0  0  0
M  END
> <PUBCHEM_COMPOUND_CID>
44584030

> <PUBCHEM_CONFORMER_RMSD>
1.2

> <PUBCHEM_CONFORMER_DIVERSEORDER>
4
143
119
139
8
74
1
113
28
53
41
86
138
58
70
3
140
147
150
142
116
91
102
80
105
141
73
21
31
145
54
81
133
52
88
32
16
19
126
23
136
131
118
26
112
100
7
95
123
117
25
37
103
77
124
83
20
79
35
89
125
132
93
84
129
2
115
61
51
17
71
64
98
33
50
101
104
11
135
69
96
27
144
45
127
68
47
6
114
92
12
78
43
38
106
87
44
34
65
121
75
82
72
49
122
137
42
99
66
146
63
15
130
57
107
24
149
85
36
111
128
148
9
22
30
39
109
108
59
60
120
62
18
46
76
5
40
55
14
29
97
48
10
56
134
110
90
13
67
94

> <PUBCHEM_MMFF94_PARTIAL_CHARGES>
59
1 -0.53
10 0.41
11 0.41
12 -0.14
13 0.27
14 0.14
15 -0.14
16 -0.14
17 0.27
18 0.14
19 0.14
2 -0.36
20 -0.14
21 0.14
22 -0.15
23 0.27
24 0.08
25 -0.14
26 0.27
27 -0.15
28 -0.14
29 -0.15
3 -0.36
30 0.08
31 0.08
32 0.08
33 0.08
34 -0.15
35 -0.15
36 -0.15
37 -0.15
38 0.08
39 0.08
4 -0.36
40 -0.15
41 -0.15
42 -0.15
43 0.08
44 0.28
45 0.28
46 0.28
47 0.28
5 -0.17
6 -0.53
62 0.15
69 0.15
7 -0.36
70 0.15
71 0.15
72 0.15
73 0.15
74 0.15
75 0.15
76 0.15
77 0.45
78 0.15
79 0.45
8 -0.81
9 -0.81

> <PUBCHEM_EFFECTIVE_ROTOR_COUNT>
11.6

> <PUBCHEM_PHARMACOPHORE_FEATURES>
15
1 1 donor
1 2 acceptor
1 3 acceptor
1 4 acceptor
1 5 acceptor
1 6 donor
1 7 acceptor
1 8 cation
1 9 cation
6 12 16 22 24 30 31 rings
6 15 20 27 29 32 33 rings
6 25 35 36 39 40 41 rings
6 28 34 37 38 42 43 rings
6 8 10 12 13 14 16 rings
6 9 11 15 17 19 20 rings

> <PUBCHEM_HEAVY_ATOM_COUNT>
47

> <PUBCHEM_ATOM_DEF_STEREO_COUNT>
2

> <PUBCHEM_ATOM_UDEF_STEREO_COUNT>
0

> <PUBCHEM_BOND_DEF_STEREO_COUNT>
0

> <PUBCHEM_BOND_UDEF_STEREO_COUNT>
0

> <PUBCHEM_ISOTOPIC_ATOM_COUNT>
0

> <PUBCHEM_COMPONENT_COUNT>
1

> <PUBCHEM_CACTVS_TAUTO_COUNT>
5

> <PUBCHEM_CONFORMER_ID>
02A84C5E00000004

> <PUBCHEM_MMFF94_ENERGY>
189.9016

> <PUBCHEM_FEATURE_SELFOVERLAP>
76.177

> <PUBCHEM_SHAPE_FINGERPRINT>
10305334 12 17984985886830057021
10439779 11 18411688882085973526
11285246 1 18114186276852680674
12107698 1 18130492103117473311
15968369 153 17988647428286033979
161222 10 18198908002800802176
16628084 112 18411143533150981617
19301679 30 18130226090455382193
19311894 1 18128533765518605241
19958102 18 18262226833224962253
20764821 26 18342468040267374034
460360 51 18410583889536076368
463206 1 18198910197487281992
513532 50 16516233159132560980
66674814 147 18262226747193338544

> <PUBCHEM_SHAPE_MULTIPOLES>
916.19
14.35
6.36
3.05
1.2
0.34
-0.31
-3.53
-3.15
-0.54
2.62
-0.18
0.38
-2.96

> <PUBCHEM_SHAPE_SELFOVERLAP>
1997.048

> <PUBCHEM_SHAPE_VOLUME>
499.5

> <PUBCHEM_COORDINATE_TYPE>
2
5
10

$$$$
