476856
  -OEChem-11202003293D

 50 51  0     1  0  0  0  0  0999 V2000
    3.4277    2.5944   -0.1082 O   0  0  0  0  0  0  0  0  0  0  0  0
   -2.5328    2.7371    0.0162 O   0  0  0  0  0  0  0  0  0  0  0  0
    5.7453    1.2365    0.6071 O   0  0  0  0  0  0  0  0  0  0  0  0
   -5.1216    2.2734    0.9159 O   0  0  0  0  0  0  0  0  0  0  0  0
    0.1599   -1.9341    0.4647 C   0  0  2  0  0  0  0  0  0  0  0  0
   -1.1350   -2.7167    0.0748 C   0  0  1  0  0  0  0  0  0  0  0  0
    1.0806   -1.6384   -0.7422 C   0  0  0  0  0  0  0  0  0  0  0  0
   -1.9828   -2.0037   -1.0075 C   0  0  0  0  0  0  0  0  0  0  0  0
    0.9297   -2.6762    1.5705 C   0  0  0  0  0  0  0  0  0  0  0  0
   -0.8583   -4.1553   -0.3847 C   0  0  0  0  0  0  0  0  0  0  0  0
    2.3281   -0.8651   -0.3807 C   0  0  0  0  0  0  0  0  0  0  0  0
   -2.8197   -0.8574   -0.4944 C   0  0  0  0  0  0  0  0  0  0  0  0
    2.3000    0.5191   -0.4123 C   0  0  0  0  0  0  0  0  0  0  0  0
   -2.2838    0.4207   -0.4763 C   0  0  0  0  0  0  0  0  0  0  0  0
    3.4744   -1.5566   -0.0263 C   0  0  0  0  0  0  0  0  0  0  0  0
   -4.1091   -1.1035   -0.0492 C   0  0  0  0  0  0  0  0  0  0  0  0
    3.4514    1.2325   -0.0797 C   0  0  0  0  0  0  0  0  0  0  0  0
   -3.0571    1.4799   -0.0012 C   0  0  0  0  0  0  0  0  0  0  0  0
    4.6260   -0.8434    0.3063 C   0  0  0  0  0  0  0  0  0  0  0  0
   -4.8823   -0.0444    0.4259 C   0  0  0  0  0  0  0  0  0  0  0  0
    4.6144    0.5512    0.2797 C   0  0  0  0  0  0  0  0  0  0  0  0
   -4.3563    1.2474    0.4499 C   0  0  0  0  0  0  0  0  0  0  0  0
    2.1995    3.2132   -0.4861 C   0  0  0  0  0  0  0  0  0  0  0  0
   -1.1979    2.8894   -0.4622 C   0  0  0  0  0  0  0  0  0  0  0  0
   -0.1531   -0.9752    0.8980 H   0  0  0  0  0  0  0  0  0  0  0  0
   -1.7477   -2.7992    0.9841 H   0  0  0  0  0  0  0  0  0  0  0  0
    1.3792   -2.5743   -1.2312 H   0  0  0  0  0  0  0  0  0  0  0  0
    0.5514   -1.0672   -1.5115 H   0  0  0  0  0  0  0  0  0  0  0  0
   -1.3838   -1.6802   -1.8645 H   0  0  0  0  0  0  0  0  0  0  0  0
   -2.6811   -2.7313   -1.4465 H   0  0  0  0  0  0  0  0  0  0  0  0
    1.6517   -2.0172    2.0632 H   0  0  0  0  0  0  0  0  0  0  0  0
    1.4675   -3.5481    1.1852 H   0  0  0  0  0  0  0  0  0  0  0  0
    0.2438   -3.0206    2.3526 H   0  0  0  0  0  0  0  0  0  0  0  0
   -0.2686   -4.1790   -1.3062 H   0  0  0  0  0  0  0  0  0  0  0  0
   -0.3281   -4.7313    0.3789 H   0  0  0  0  0  0  0  0  0  0  0  0
   -1.7981   -4.6841   -0.5804 H   0  0  0  0  0  0  0  0  0  0  0  0
    1.3649    0.9895   -0.6913 H   0  0  0  0  0  0  0  0  0  0  0  0
   -1.2734    0.5406   -0.8488 H   0  0  0  0  0  0  0  0  0  0  0  0
    3.4988   -2.6422   -0.0099 H   0  0  0  0  0  0  0  0  0  0  0  0
   -4.5272   -2.1060   -0.0606 H   0  0  0  0  0  0  0  0  0  0  0  0
    5.5256   -1.3868    0.5827 H   0  0  0  0  0  0  0  0  0  0  0  0
   -5.8935   -0.2323    0.7768 H   0  0  0  0  0  0  0  0  0  0  0  0
    6.4478    0.6012    0.8281 H   0  0  0  0  0  0  0  0  0  0  0  0
   -4.6004    3.0931    0.8603 H   0  0  0  0  0  0  0  0  0  0  0  0
    1.8599    2.9043   -1.4799 H   0  0  0  0  0  0  0  0  0  0  0  0
    2.3883    4.2906   -0.5419 H   0  0  0  0  0  0  0  0  0  0  0  0
    1.4559    3.0674    0.2982 H   0  0  0  0  0  0  0  0  0  0  0  0
   -1.1176    2.6414   -1.5257 H   0  0  0  0  0  0  0  0  0  0  0  0
   -0.5098    2.3109    0.1579 H   0  0  0  0  0  0  0  0  0  0  0  0
   -0.9312    3.9453   -0.3533 H   0  0  0  0  0  0  0  0  0  0  0  0
  1 17  1  0  0  0  0
  1 23  1  0  0  0  0
  2 18  1  0  0  0  0
  2 24  1  0  0  0  0
  3 21  1  0  0  0  0
  3 43  1  0  0  0  0
  4 22  1  0  0  0  0
  4 44  1  0  0  0  0
  5  6  1  0  0  0  0
  5  7  1  0  0  0  0
  5  9  1  0  0  0  0
  5 25  1  0  0  0  0
  6  8  1  0  0  0  0
  6 10  1  0  0  0  0
  6 26  1  0  0  0  0
  7 11  1  0  0  0  0
  7 27  1  0  0  0  0
  7 28  1  0  0  0  0
  8 12  1  0  0  0  0
  8 29  1  0  0  0  0
  8 30  1  0  0  0  0
  9 31  1  0  0  0  0
  9 32  1  0  0  0  0
  9 33  1  0  0  0  0
 10 34  1  0  0  0  0
 10 35  1  0  0  0  0
 10 36  1  0  0  0  0
 11 13  2  0  0  0  0
 11 15  1  0  0  0  0
 12 14  2  0  0  0  0
 12 16  1  0  0  0  0
 13 17  1  0  0  0  0
 13 37  1  0  0  0  0
 14 18  1  0  0  0  0
 14 38  1  0  0  0  0
 15 19  2  0  0  0  0
 15 39  1  0  0  0  0
 16 20  2  0  0  0  0
 16 40  1  0  0  0  0
 17 21  2  0  0  0  0
 18 22  2  0  0  0  0
 19 21  1  0  0  0  0
 19 41  1  0  0  0  0
 20 22  1  0  0  0  0
 20 42  1  0  0  0  0
 23 45  1  0  0  0  0
 23 46  1  0  0  0  0
 23 47  1  0  0  0  0
 24 48  1  0  0  0  0
 24 49  1  0  0  0  0
 24 50  1  0  0  0  0
M  END
> <PUBCHEM_COMPOUND_CID>
476856

> <PUBCHEM_CONFORMER_RMSD>
0.8

> <PUBCHEM_CONFORMER_DIVERSEORDER>
171
71
160
165
158
45
195
32
56
178
61
54
44
149
154
103
163
146
152
111
173
145
25
211
46
175
210
47
179
52
192
126
78
81
50
113
181
194
182
122
148
167
105
84
62
212
104
85
121
18
186
155
74
169
53
107
15
57
89
22
183
115
59
65
102
43
58
136
33
94
30
21
201
206
153
51
77
16
114
151
208
12
198
17
48
124
80
134
23
29
116
140
202
31
125
144
176
34
79
2
205
27
128
191
86
184
120
35
19
92
170
135
100
101
87
196
193
40
24
150
3
55
96
159
180
36
88
93
199
166
83
37
110
8
49
112
5
168
162
138
109
185
131
98
147
75
157
190
106
123
95
161
69
141
156
90
68
39
7
117
142
1
91
174
137
13
41
9
127
177
72
143
63
207
108
26
10
203
14
187
99
172
4
20
139
204
188
118
132
189
11
76
73
213
130
67
42
197
164
200
66
209
38
129
64
60
6
82
28
133
119
70
97

> <PUBCHEM_MMFF94_PARTIAL_CHARGES>
28
1 -0.36
11 -0.14
12 -0.14
13 -0.15
14 -0.15
15 -0.15
16 -0.15
17 0.08
18 0.08
19 -0.15
2 -0.36
20 -0.15
21 0.08
22 0.08
23 0.28
24 0.28
3 -0.53
37 0.15
38 0.15
39 0.15
4 -0.53
40 0.15
41 0.15
42 0.15
43 0.45
44 0.45
7 0.14
8 0.14

> <PUBCHEM_EFFECTIVE_ROTOR_COUNT>
7

> <PUBCHEM_PHARMACOPHORE_FEATURES>
9
1 1 acceptor
1 10 hydrophobe
1 2 acceptor
1 3 donor
1 4 donor
1 9 hydrophobe
4 5 6 7 8 hydrophobe
6 11 13 15 17 19 21 rings
6 12 14 16 18 20 22 rings

> <PUBCHEM_HEAVY_ATOM_COUNT>
24

> <PUBCHEM_ATOM_DEF_STEREO_COUNT>
2

> <PUBCHEM_ATOM_UDEF_STEREO_COUNT>
0

> <PUBCHEM_BOND_DEF_STEREO_COUNT>
0

> <PUBCHEM_BOND_UDEF_STEREO_COUNT>
0

> <PUBCHEM_ISOTOPIC_ATOM_COUNT>
0

> <PUBCHEM_COMPONENT_COUNT>
1

> <PUBCHEM_CACTVS_TAUTO_COUNT>
5

> <PUBCHEM_CONFORMER_ID>
000746B8000000AB

> <PUBCHEM_MMFF94_ENERGY>
84.6186

> <PUBCHEM_FEATURE_SELFOVERLAP>
45.813

> <PUBCHEM_SHAPE_FINGERPRINT>
10498660 4 18338232657601265071
10616163 171 18123474040271406284
1100329 8 18264770046158036213
12107183 9 18337662028431623690
12596602 18 17168141277914388624
12633257 1 18115572872916232876
12788726 201 17610923543694361462
12925494 130 17978230453198737321
12978246 48 18409729573133082112
13122387 1 17617940236007465300
13140716 1 18190180276931173222
13402501 40 18412826888824881848
138480 1 17474672750180277191
14251764 38 18267022941346663432
14466204 15 18335693893927346874
14765038 42 18200891611666330992
14790565 3 18412832369862580033
14955137 171 17830732054490009394
15196674 1 18412263921691208077
15238133 3 18335145315129391012
15256400 18 18411135827536073198
19591789 44 18410575119582032009
19930381 70 18337956680029777205
21033648 29 17631435930486246298
21673915 165 18410292493211642916
21864079 5 18340481150074159767
23227448 37 18341332283547983943
23558518 356 18046065136194578338
23559900 14 18130788911312579430
338550 245 18335144193473585292
3680242 22 18335985268397298176
392239 28 18261405498144587323
474 4 18335419088354267114
5081480 168 17413633542637172758
5104073 3 18335984190155116579
5309563 4 16680635697580995090
57091435 65 18044932368429587394
6328613 192 18189058762993211228
7064713 232 18342175561606069393
7097593 13 17176579763750204275
7808743 9 18341608235001709515

> <PUBCHEM_SHAPE_MULTIPOLES>
470.43
10.63
4.43
0.91
2.03
0.4
-0.11
-5.75
-2.07
-0.77
0.13
-0.11
0.33
-0.85

> <PUBCHEM_SHAPE_SELFOVERLAP>
984.185

> <PUBCHEM_SHAPE_VOLUME>
268.2

> <PUBCHEM_COORDINATE_TYPE>
2
5
10

$$$$
