11844108
  -OEChem-11202002373D

 67 68  0     1  0  0  0  0  0999 V2000
    1.8453   -1.7235    0.3491 O   0  0  0  0  0  0  0  0  0  0  0  0
   -2.0524    0.1715   -1.0784 O   0  0  0  0  0  0  0  0  0  0  0  0
    2.5945    0.5131   -1.5103 O   0  0  0  0  0  0  0  0  0  0  0  0
    2.7033    3.3335   -0.6209 O   0  0  0  0  0  0  0  0  0  0  0  0
   -5.1197    1.2579   -0.6111 O   0  0  0  0  0  0  0  0  0  0  0  0
    3.1449   -2.9996    1.7702 O   0  0  0  0  0  0  0  0  0  0  0  0
    4.4308   -0.4431   -2.5355 O   0  0  0  0  0  0  0  0  0  0  0  0
   -1.4122    0.1585    1.2298 C   0  0  1  0  0  0  0  0  0  0  0  0
   -1.1306   -1.3822    1.2519 C   0  0  2  0  0  0  0  0  0  0  0  0
   -0.1380    0.9833    0.9219 C   0  0  0  0  0  0  0  0  0  0  0  0
    1.1233    0.4794    1.0102 C   0  0  0  0  0  0  0  0  0  0  0  0
    0.1502   -1.6723    2.0456 C   0  0  0  0  0  0  0  0  0  0  0  0
    1.3683   -0.9597    1.4572 C   0  0  1  0  0  0  0  0  0  0  0  0
    2.3922    1.3241    0.7280 C   0  0  2  0  0  0  0  0  0  0  0  0
   -2.5473    0.4550    0.2187 C   0  0  2  0  0  0  0  0  0  0  0  0
   -0.3853    2.4316    0.5366 C   0  0  0  0  0  0  0  0  0  0  0  0
   -1.9271    0.5841    2.6311 C   0  0  0  0  0  0  0  0  0  0  0  0
    0.7916    3.3503    0.7840 C   0  0  0  0  0  0  0  0  0  0  0  0
   -1.0757   -2.0329   -0.1412 C   0  0  0  0  0  0  0  0  0  0  0  0
    2.0142    2.7161    0.1915 C   0  0  0  0  0  0  0  0  0  0  0  0
   -3.7691   -0.4135    0.5306 C   0  0  0  0  0  0  0  0  0  0  0  0
    3.3219    0.6672   -0.3111 C   0  0  0  0  0  0  0  0  0  0  0  0
    3.1850    1.5676    2.0268 C   0  0  0  0  0  0  0  0  0  0  0  0
   -4.9993   -0.1455   -0.3730 C   0  0  1  0  0  0  0  0  0  0  0  0
   -6.2772   -0.5898    0.3516 C   0  0  0  0  0  0  0  0  0  0  0  0
   -4.8955   -0.8993   -1.6819 C   0  0  0  0  0  0  0  0  0  0  0  0
    2.7329   -2.7158    0.6535 C   0  0  0  0  0  0  0  0  0  0  0  0
    3.2687   -0.0610   -2.5585 C   0  0  0  0  0  0  0  0  0  0  0  0
    3.1439   -3.4288   -0.5989 C   0  0  0  0  0  0  0  0  0  0  0  0
   -4.8579   -0.3656   -2.9092 C   0  0  0  0  0  0  0  0  0  0  0  0
    2.3761   -0.1606   -3.7584 C   0  0  0  0  0  0  0  0  0  0  0  0
   -1.9297   -1.8979    1.8012 H   0  0  0  0  0  0  0  0  0  0  0  0
    0.0118   -1.3449    3.0835 H   0  0  0  0  0  0  0  0  0  0  0  0
    0.3157   -2.7558    2.0887 H   0  0  0  0  0  0  0  0  0  0  0  0
    2.1265   -0.9316    2.2487 H   0  0  0  0  0  0  0  0  0  0  0  0
   -2.8265    1.5135    0.2522 H   0  0  0  0  0  0  0  0  0  0  0  0
   -1.2287    2.8430    1.1012 H   0  0  0  0  0  0  0  0  0  0  0  0
   -0.6559    2.4674   -0.5261 H   0  0  0  0  0  0  0  0  0  0  0  0
   -2.6154   -0.1454    3.0706 H   0  0  0  0  0  0  0  0  0  0  0  0
   -1.0993    0.6898    3.3432 H   0  0  0  0  0  0  0  0  0  0  0  0
   -2.4414    1.5516    2.6036 H   0  0  0  0  0  0  0  0  0  0  0  0
    0.6179    4.3245    0.3147 H   0  0  0  0  0  0  0  0  0  0  0  0
    0.9582    3.5198    1.8529 H   0  0  0  0  0  0  0  0  0  0  0  0
   -0.3938   -1.5179   -0.8248 H   0  0  0  0  0  0  0  0  0  0  0  0
   -0.6930   -3.0574   -0.0450 H   0  0  0  0  0  0  0  0  0  0  0  0
   -2.0439   -2.1518   -0.6294 H   0  0  0  0  0  0  0  0  0  0  0  0
   -4.0921   -0.1796    1.5514 H   0  0  0  0  0  0  0  0  0  0  0  0
   -3.5865   -1.4892    0.5173 H   0  0  0  0  0  0  0  0  0  0  0  0
    4.1866    1.3164   -0.5063 H   0  0  0  0  0  0  0  0  0  0  0  0
    3.7306   -0.2855    0.0357 H   0  0  0  0  0  0  0  0  0  0  0  0
    3.9613    2.3283    1.8805 H   0  0  0  0  0  0  0  0  0  0  0  0
    2.5353    1.9216    2.8357 H   0  0  0  0  0  0  0  0  0  0  0  0
    3.6861    0.6584    2.3761 H   0  0  0  0  0  0  0  0  0  0  0  0
   -2.6053    0.6530   -1.7158 H   0  0  0  0  0  0  0  0  0  0  0  0
   -7.1641   -0.3947   -0.2635 H   0  0  0  0  0  0  0  0  0  0  0  0
   -6.2569   -1.6574    0.5971 H   0  0  0  0  0  0  0  0  0  0  0  0
   -6.4216   -0.0257    1.2806 H   0  0  0  0  0  0  0  0  0  0  0  0
   -4.8414   -1.9845   -1.6096 H   0  0  0  0  0  0  0  0  0  0  0  0
   -5.2173    1.7019    0.2487 H   0  0  0  0  0  0  0  0  0  0  0  0
    2.2701   -3.6181   -1.2283 H   0  0  0  0  0  0  0  0  0  0  0  0
    3.5840   -4.3949   -0.3361 H   0  0  0  0  0  0  0  0  0  0  0  0
    3.8812   -2.8315   -1.1385 H   0  0  0  0  0  0  0  0  0  0  0  0
   -4.7786   -1.0074   -3.7802 H   0  0  0  0  0  0  0  0  0  0  0  0
   -4.9021    0.7041   -3.0767 H   0  0  0  0  0  0  0  0  0  0  0  0
    2.0602    0.8387   -4.0680 H   0  0  0  0  0  0  0  0  0  0  0  0
    2.9252   -0.6253   -4.5822 H   0  0  0  0  0  0  0  0  0  0  0  0
    1.5091   -0.7826   -3.5220 H   0  0  0  0  0  0  0  0  0  0  0  0
  1 13  1  0  0  0  0
  1 27  1  0  0  0  0
  2 15  1  0  0  0  0
  2 54  1  0  0  0  0
  3 22  1  0  0  0  0
  3 28  1  0  0  0  0
  4 20  2  0  0  0  0
  5 24  1  0  0  0  0
  5 59  1  0  0  0  0
  6 27  2  0  0  0  0
  7 28  2  0  0  0  0
  8  9  1  0  0  0  0
  8 10  1  0  0  0  0
  8 15  1  0  0  0  0
  8 17  1  0  0  0  0
  9 12  1  0  0  0  0
  9 19  1  0  0  0  0
  9 32  1  0  0  0  0
 10 11  2  0  0  0  0
 10 16  1  0  0  0  0
 11 13  1  0  0  0  0
 11 14  1  0  0  0  0
 12 13  1  0  0  0  0
 12 33  1  0  0  0  0
 12 34  1  0  0  0  0
 13 35  1  0  0  0  0
 14 20  1  0  0  0  0
 14 22  1  0  0  0  0
 14 23  1  0  0  0  0
 15 21  1  0  0  0  0
 15 36  1  0  0  0  0
 16 18  1  0  0  0  0
 16 37  1  0  0  0  0
 16 38  1  0  0  0  0
 17 39  1  0  0  0  0
 17 40  1  0  0  0  0
 17 41  1  0  0  0  0
 18 20  1  0  0  0  0
 18 42  1  0  0  0  0
 18 43  1  0  0  0  0
 19 44  1  0  0  0  0
 19 45  1  0  0  0  0
 19 46  1  0  0  0  0
 21 24  1  0  0  0  0
 21 47  1  0  0  0  0
 21 48  1  0  0  0  0
 22 49  1  0  0  0  0
 22 50  1  0  0  0  0
 23 51  1  0  0  0  0
 23 52  1  0  0  0  0
 23 53  1  0  0  0  0
 24 25  1  0  0  0  0
 24 26  1  0  0  0  0
 25 55  1  0  0  0  0
 25 56  1  0  0  0  0
 25 57  1  0  0  0  0
 26 30  2  0  0  0  0
 26 58  1  0  0  0  0
 27 29  1  0  0  0  0
 28 31  1  0  0  0  0
 29 60  1  0  0  0  0
 29 61  1  0  0  0  0
 29 62  1  0  0  0  0
 30 63  1  0  0  0  0
 30 64  1  0  0  0  0
 31 65  1  0  0  0  0
 31 66  1  0  0  0  0
 31 67  1  0  0  0  0
M  END
> <PUBCHEM_COMPOUND_CID>
11844108

> <PUBCHEM_CONFORMER_RMSD>
1

> <PUBCHEM_CONFORMER_DIVERSEORDER>
1
19
46
41
43
37
52
51
31
47
15
38
13
39
40
18
45
50
12
14
23
44
49
26
22
8
30
48
21
5
16
17
36
28
29
3
20
32
42
33
2
24
27
9
25
4
10
7
34
11
6
35

> <PUBCHEM_MMFF94_PARTIAL_CHARGES>
29
1 -0.43
10 -0.28
11 -0.28
13 0.42
14 0.2
15 0.28
16 0.14
18 0.06
2 -0.68
20 0.45
22 0.28
24 0.42
26 -0.29
27 0.66
28 0.66
29 0.06
3 -0.43
30 -0.3
31 0.06
4 -0.57
5 -0.68
54 0.4
58 0.15
59 0.4
6 -0.57
63 0.15
64 0.15
7 -0.57
8 0.14

> <PUBCHEM_EFFECTIVE_ROTOR_COUNT>
10.4

> <PUBCHEM_PHARMACOPHORE_FEATURES>
10
1 2 acceptor
1 2 donor
1 30 hydrophobe
1 4 acceptor
1 5 acceptor
1 5 donor
1 6 acceptor
1 7 acceptor
6 10 11 14 16 18 20 rings
6 8 9 10 11 12 13 rings

> <PUBCHEM_HEAVY_ATOM_COUNT>
31

> <PUBCHEM_ATOM_DEF_STEREO_COUNT>
4

> <PUBCHEM_ATOM_UDEF_STEREO_COUNT>
2

> <PUBCHEM_BOND_DEF_STEREO_COUNT>
0

> <PUBCHEM_BOND_UDEF_STEREO_COUNT>
0

> <PUBCHEM_ISOTOPIC_ATOM_COUNT>
0

> <PUBCHEM_COMPONENT_COUNT>
1

> <PUBCHEM_CACTVS_TAUTO_COUNT>
2

> <PUBCHEM_CONFORMER_ID>
00B4BA0C00000001

> <PUBCHEM_MMFF94_ENERGY>
85.7514

> <PUBCHEM_FEATURE_SELFOVERLAP>
50.762

> <PUBCHEM_SHAPE_FINGERPRINT>
11578080 2 16807042907667967099
11796584 16 14979689839881153141
12156800 1 15723017772531273590
12166972 35 17604990308784284578
13140716 1 18048866687200598776
14739800 52 14490477533694863623
15664445 248 18272654579753841776
16945 1 18336565866513913104
17492 54 17843991293216335684
1813 80 17988360365245926543
20775438 99 18058153085300330735
23419403 2 17610580222068640762
23559900 14 18337103566254127592
238 59 18334580169577425067
2838139 119 15792302629950528502
44802255 64 16302654163951592742
484985 159 15331009935388772204
5104073 3 11239712033486417847
513532 50 18131629006398069044
633830 44 18339645637591557009
6669772 16 18266461086725784708
70251023 43 17845391993272083308
7288768 16 12470631900192082332
7471813 234 18192423078830571690
9925002 15 17685788921747341160

> <PUBCHEM_SHAPE_MULTIPOLES>
596.88
9.72
3.34
2.89
14.78
0.49
2.04
-2.71
5.05
-4.21
-0.61
-1.46
-1.23
-0.71

> <PUBCHEM_SHAPE_SELFOVERLAP>
1234.572

> <PUBCHEM_SHAPE_VOLUME>
338

> <PUBCHEM_COORDINATE_TYPE>
2
5
10

$$$$
