6427497
  -OEChem-11202002323D

 47 47  0     1  0  0  0  0  0999 V2000
    0.4268    1.8556    0.3471 O   0  0  0  0  0  0  0  0  0  0  0  0
   -1.6883    2.7123   -0.0126 O   0  0  0  0  0  0  0  0  0  0  0  0
    1.3061   -0.2339   -0.4104 C   0  0  2  0  0  0  0  0  0  0  0  0
    0.0860    0.6839   -0.3963 C   0  0  1  0  0  0  0  0  0  0  0  0
    1.6224   -0.7560    0.9946 C   0  0  0  0  0  0  0  0  0  0  0  0
    2.5282    0.4923   -0.9950 C   0  0  0  0  0  0  0  0  0  0  0  0
   -1.0998   -0.0305    0.2860 C   0  0  0  0  0  0  0  0  0  0  0  0
    2.8126   -1.7202    0.9724 C   0  0  0  0  0  0  0  0  0  0  0  0
   -0.2415    1.1255   -1.8236 C   0  0  0  0  0  0  0  0  0  0  0  0
    3.9553   -1.2536    0.1058 C   0  0  0  0  0  0  0  0  0  0  0  0
    3.8171   -0.2425   -0.7690 C   0  0  0  0  0  0  0  0  0  0  0  0
   -1.5842   -1.2912   -0.4412 C   0  0  0  0  0  0  0  0  0  0  0  0
    5.2543   -1.9844    0.2747 C   0  0  0  0  0  0  0  0  0  0  0  0
   -2.7865   -1.8813    0.2429 C   0  0  0  0  0  0  0  0  0  0  0  0
   -0.5616    2.7896    0.4583 C   0  0  0  0  0  0  0  0  0  0  0  0
   -4.0798   -1.5563    0.0560 C   0  0  0  0  0  0  0  0  0  0  0  0
   -0.0648    3.9551    1.2588 C   0  0  0  0  0  0  0  0  0  0  0  0
   -5.2396   -2.1861    0.7741 C   0  0  0  0  0  0  0  0  0  0  0  0
   -4.4626   -0.4783   -0.9225 C   0  0  0  0  0  0  0  0  0  0  0  0
    1.1080   -1.1034   -1.0529 H   0  0  0  0  0  0  0  0  0  0  0  0
    0.7942   -1.3150    1.4375 H   0  0  0  0  0  0  0  0  0  0  0  0
    1.8483    0.0787    1.6707 H   0  0  0  0  0  0  0  0  0  0  0  0
    2.6492    1.4969   -0.5735 H   0  0  0  0  0  0  0  0  0  0  0  0
    2.4000    0.6128   -2.0773 H   0  0  0  0  0  0  0  0  0  0  0  0
   -0.8968   -0.2324    1.3443 H   0  0  0  0  0  0  0  0  0  0  0  0
   -1.9743    0.6206    0.3475 H   0  0  0  0  0  0  0  0  0  0  0  0
    2.4803   -2.7001    0.6068 H   0  0  0  0  0  0  0  0  0  0  0  0
    3.1612   -1.8629    2.0024 H   0  0  0  0  0  0  0  0  0  0  0  0
   -1.2731    1.4735   -1.9370 H   0  0  0  0  0  0  0  0  0  0  0  0
    0.4044    1.9456   -2.1584 H   0  0  0  0  0  0  0  0  0  0  0  0
   -0.1318    0.2984   -2.5348 H   0  0  0  0  0  0  0  0  0  0  0  0
    4.6690    0.0793   -1.3625 H   0  0  0  0  0  0  0  0  0  0  0  0
   -0.8031   -2.0595   -0.4393 H   0  0  0  0  0  0  0  0  0  0  0  0
   -1.8013   -1.0930   -1.4954 H   0  0  0  0  0  0  0  0  0  0  0  0
    6.0324   -1.6046   -0.3958 H   0  0  0  0  0  0  0  0  0  0  0  0
    5.1202   -3.0495    0.0600 H   0  0  0  0  0  0  0  0  0  0  0  0
    5.6186   -1.8795    1.3017 H   0  0  0  0  0  0  0  0  0  0  0  0
   -2.5604   -2.6532    0.9770 H   0  0  0  0  0  0  0  0  0  0  0  0
    0.7908    4.4122    0.7553 H   0  0  0  0  0  0  0  0  0  0  0  0
    0.2108    3.6239    2.2632 H   0  0  0  0  0  0  0  0  0  0  0  0
   -0.8593    4.7020    1.3436 H   0  0  0  0  0  0  0  0  0  0  0  0
   -5.9249   -2.6505    0.0579 H   0  0  0  0  0  0  0  0  0  0  0  0
   -4.9082   -2.9621    1.4718 H   0  0  0  0  0  0  0  0  0  0  0  0
   -5.7889   -1.4326    1.3476 H   0  0  0  0  0  0  0  0  0  0  0  0
   -3.6217    0.0375   -1.3899 H   0  0  0  0  0  0  0  0  0  0  0  0
   -5.0586    0.2881   -0.4146 H   0  0  0  0  0  0  0  0  0  0  0  0
   -5.0724   -0.9056   -1.7258 H   0  0  0  0  0  0  0  0  0  0  0  0
  1  4  1  0  0  0  0
  1 15  1  0  0  0  0
  2 15  2  0  0  0  0
  3  4  1  0  0  0  0
  3  5  1  0  0  0  0
  3  6  1  0  0  0  0
  3 20  1  0  0  0  0
  4  7  1  0  0  0  0
  4  9  1  0  0  0  0
  5  8  1  0  0  0  0
  5 21  1  0  0  0  0
  5 22  1  0  0  0  0
  6 11  1  0  0  0  0
  6 23  1  0  0  0  0
  6 24  1  0  0  0  0
  7 12  1  0  0  0  0
  7 25  1  0  0  0  0
  7 26  1  0  0  0  0
  8 10  1  0  0  0  0
  8 27  1  0  0  0  0
  8 28  1  0  0  0  0
  9 29  1  0  0  0  0
  9 30  1  0  0  0  0
  9 31  1  0  0  0  0
 10 11  2  0  0  0  0
 10 13  1  0  0  0  0
 11 32  1  0  0  0  0
 12 14  1  0  0  0  0
 12 33  1  0  0  0  0
 12 34  1  0  0  0  0
 13 35  1  0  0  0  0
 13 36  1  0  0  0  0
 13 37  1  0  0  0  0
 14 16  2  0  0  0  0
 14 38  1  0  0  0  0
 15 17  1  0  0  0  0
 16 18  1  0  0  0  0
 16 19  1  0  0  0  0
 17 39  1  0  0  0  0
 17 40  1  0  0  0  0
 17 41  1  0  0  0  0
 18 42  1  0  0  0  0
 18 43  1  0  0  0  0
 18 44  1  0  0  0  0
 19 45  1  0  0  0  0
 19 46  1  0  0  0  0
 19 47  1  0  0  0  0
M  END
> <PUBCHEM_COMPOUND_CID>
6427497

> <PUBCHEM_CONFORMER_RMSD>
0.8

> <PUBCHEM_CONFORMER_DIVERSEORDER>
2
25
21
12
9
19
6
5
7
16
10
18
26
17
11
13
23
15
3
24
4
22
1
8
14
20

> <PUBCHEM_MMFF94_PARTIAL_CHARGES>
17
1 -0.43
10 -0.28
11 -0.29
12 0.14
13 0.14
14 -0.29
15 0.66
16 -0.28
17 0.06
18 0.14
19 0.14
2 -0.57
32 0.15
38 0.15
4 0.28
6 0.14
8 0.14

> <PUBCHEM_EFFECTIVE_ROTOR_COUNT>
6.8

> <PUBCHEM_PHARMACOPHORE_FEATURES>
3
1 2 acceptor
3 16 18 19 hydrophobe
6 3 5 6 8 10 11 rings

> <PUBCHEM_HEAVY_ATOM_COUNT>
19

> <PUBCHEM_ATOM_DEF_STEREO_COUNT>
2

> <PUBCHEM_ATOM_UDEF_STEREO_COUNT>
0

> <PUBCHEM_BOND_DEF_STEREO_COUNT>
0

> <PUBCHEM_BOND_UDEF_STEREO_COUNT>
0

> <PUBCHEM_ISOTOPIC_ATOM_COUNT>
0

> <PUBCHEM_COMPONENT_COUNT>
1

> <PUBCHEM_CACTVS_TAUTO_COUNT>
1

> <PUBCHEM_CONFORMER_ID>
0062136900000002

> <PUBCHEM_MMFF94_ENERGY>
38.2101

> <PUBCHEM_FEATURE_SELFOVERLAP>
15.223

> <PUBCHEM_SHAPE_FINGERPRINT>
11265709 11 18411423920572226634
11578080 2 18114443639477401357
12293681 160 17689750818435295228
12516196 113 18341611555074726115
12553582 1 18341325686330848991
12760667 363 18338510850690815670
12788726 201 18339092518427717326
12824470 246 18113893819465057466
13004483 165 18413385436436616922
13052359 8 18193557757930323789
13134695 92 18269272525062680309
13140716 1 18343022155426114401
13533116 47 17976822305442584099
13538477 17 18192992626011969404
13583140 156 17344323590088114754
13955234 65 17765440129480597683
14178342 30 18121206585940451506
14347329 18 16807824605181263333
14787075 74 18118400881252812916
15042514 8 18268155257860793297
15885798 251 18413112774859502003
15906896 17 17912354334315327956
16752209 62 18264195942216758127
17980427 23 17131841984187834825
17980427 26 17623563559500241053
1813 80 18131080362880607567
18222031 100 18060420252474644143
19078846 21 18341629139319221329
19784866 135 18340199700645778506
200 152 18260265244124685942
20369508 70 18267584791973209719
20600515 1 17846230993716711779
20671657 53 18341619269194296259
20832881 197 18335703871046769667
21041028 32 18412546530834755397
21250096 35 18410012164964858951
21296965 67 18411419535442155477
22112679 90 18198931199718941465
23175994 123 18412541029271897239
23402539 116 18270673156662988541
23419403 2 18192121967020940245
23526113 38 17604997094737030017
23557571 272 18341890741445544322
23558518 356 17907021677108670814
23559900 14 18409719652159353524
23598288 3 18341892939930717340
25147074 1 18041573425653952878
266924 1 18189072974565032316
3004659 81 17967530173160851506
3091708 16 8848419356121057497
314173 85 18273218590268578222
314194 84 18336832016947623403
34934 24 18126849532552590030
465052 167 18338526364645705087
5895379 119 16699250116576251793
59755656 520 17833548990289292412
68521 5 18411138000309600445
7164475 11 18337398136823539166
7364860 26 17981891049154772649
77188 2 18412826923184841161
81228 2 18269005197339068225
8863177 126 17826245265891994115

> <PUBCHEM_SHAPE_MULTIPOLES>
379.27
8.99
3.58
1.2
2.1
4.16
0.21
-10.15
-0.34
1.12
-1.64
-0.06
0.39
-0.13

> <PUBCHEM_SHAPE_SELFOVERLAP>
753.2

> <PUBCHEM_SHAPE_VOLUME>
223.8

> <PUBCHEM_COORDINATE_TYPE>
2
5
10

$$$$
