10404245
  -OEChem-11202003293D

 48 50  0     1  0  0  0  0  0999 V2000
    4.1564    2.4678    0.2395 O   0  0  0  0  0  0  0  0  0  0  0  0
    6.0165    1.1289   -0.5054 O   0  0  0  0  0  0  0  0  0  0  0  0
   -5.8783    0.6755   -0.5804 O   0  0  0  0  0  0  0  0  0  0  0  0
   -4.5865    3.1347   -0.4832 O   0  0  0  0  0  0  0  0  0  0  0  0
    0.2511   -1.5973   -0.4457 C   0  0  1  0  0  0  0  0  0  0  0  0
   -1.1079   -2.2720   -0.0728 C   0  0  2  0  0  0  0  0  0  0  0  0
    1.2217   -1.4695    0.7514 C   0  0  0  0  0  0  0  0  0  0  0  0
   -1.8653   -1.5575    1.0737 C   0  0  0  0  0  0  0  0  0  0  0  0
    0.9206   -2.3396   -1.6148 C   0  0  0  0  0  0  0  0  0  0  0  0
   -0.9639   -3.7584    0.2838 C   0  0  0  0  0  0  0  0  0  0  0  0
    2.5320   -0.8010    0.4037 C   0  0  0  0  0  0  0  0  0  0  0  0
   -2.5962   -0.3044    0.6572 C   0  0  0  0  0  0  0  0  0  0  0  0
    2.6377    0.5774    0.5215 C   0  0  0  0  0  0  0  0  0  0  0  0
    3.6005   -1.5906   -0.0266 C   0  0  0  0  0  0  0  0  0  0  0  0
   -3.9107   -0.3955    0.2272 C   0  0  0  0  0  0  0  0  0  0  0  0
   -1.9395    0.9150    0.7110 C   0  0  0  0  0  0  0  0  0  0  0  0
    3.8531    1.1419    0.1929 C   0  0  0  0  0  0  0  0  0  0  0  0
    4.9153    0.3774   -0.2326 C   0  0  0  0  0  0  0  0  0  0  0  0
    4.8206   -0.9937   -0.3531 C   0  0  0  0  0  0  0  0  0  0  0  0
   -4.5859    0.7625   -0.1586 C   0  0  0  0  0  0  0  0  0  0  0  0
   -2.6146    2.0729    0.3253 C   0  0  0  0  0  0  0  0  0  0  0  0
   -3.9379    1.9967   -0.1095 C   0  0  0  0  0  0  0  0  0  0  0  0
    5.5288    2.4521   -0.2036 C   0  0  0  0  0  0  0  0  0  0  0  0
   -6.4674   -0.6233   -0.6008 C   0  0  0  0  0  0  0  0  0  0  0  0
    0.0258   -0.5866   -0.8108 H   0  0  0  0  0  0  0  0  0  0  0  0
   -1.7425   -2.2345   -0.9700 H   0  0  0  0  0  0  0  0  0  0  0  0
    0.7668   -0.8952    1.5649 H   0  0  0  0  0  0  0  0  0  0  0  0
    1.4346   -2.4580    1.1773 H   0  0  0  0  0  0  0  0  0  0  0  0
   -2.6192   -2.2441    1.4857 H   0  0  0  0  0  0  0  0  0  0  0  0
   -1.2190   -1.3467    1.9316 H   0  0  0  0  0  0  0  0  0  0  0  0
    0.1883   -2.5652   -2.3980 H   0  0  0  0  0  0  0  0  0  0  0  0
    1.3773   -3.2824   -1.2982 H   0  0  0  0  0  0  0  0  0  0  0  0
    1.6939   -1.7242   -2.0857 H   0  0  0  0  0  0  0  0  0  0  0  0
   -0.5104   -4.3307   -0.5304 H   0  0  0  0  0  0  0  0  0  0  0  0
   -0.3593   -3.9012    1.1846 H   0  0  0  0  0  0  0  0  0  0  0  0
   -1.9466   -4.2059    0.4713 H   0  0  0  0  0  0  0  0  0  0  0  0
    1.8082    1.1916    0.8530 H   0  0  0  0  0  0  0  0  0  0  0  0
    3.5035   -2.6700   -0.1048 H   0  0  0  0  0  0  0  0  0  0  0  0
   -4.3594   -1.3824    0.2068 H   0  0  0  0  0  0  0  0  0  0  0  0
   -0.9115    0.9875    1.0524 H   0  0  0  0  0  0  0  0  0  0  0  0
    5.6602   -1.5927   -0.6871 H   0  0  0  0  0  0  0  0  0  0  0  0
   -2.1044    3.0314    0.3668 H   0  0  0  0  0  0  0  0  0  0  0  0
    6.1565    2.8865    0.5829 H   0  0  0  0  0  0  0  0  0  0  0  0
    5.6140    3.0713   -1.1040 H   0  0  0  0  0  0  0  0  0  0  0  0
   -5.4900    2.8965   -0.7545 H   0  0  0  0  0  0  0  0  0  0  0  0
   -6.5314   -1.0537    0.4044 H   0  0  0  0  0  0  0  0  0  0  0  0
   -5.9577   -1.2868   -1.3078 H   0  0  0  0  0  0  0  0  0  0  0  0
   -7.4947   -0.5052   -0.9611 H   0  0  0  0  0  0  0  0  0  0  0  0
  1 17  1  0  0  0  0
  1 23  1  0  0  0  0
  2 18  1  0  0  0  0
  2 23  1  0  0  0  0
  3 20  1  0  0  0  0
  3 24  1  0  0  0  0
  4 22  1  0  0  0  0
  4 45  1  0  0  0  0
  5  6  1  0  0  0  0
  5  7  1  0  0  0  0
  5  9  1  0  0  0  0
  5 25  1  0  0  0  0
  6  8  1  0  0  0  0
  6 10  1  0  0  0  0
  6 26  1  0  0  0  0
  7 11  1  0  0  0  0
  7 27  1  0  0  0  0
  7 28  1  0  0  0  0
  8 12  1  0  0  0  0
  8 29  1  0  0  0  0
  8 30  1  0  0  0  0
  9 31  1  0  0  0  0
  9 32  1  0  0  0  0
  9 33  1  0  0  0  0
 10 34  1  0  0  0  0
 10 35  1  0  0  0  0
 10 36  1  0  0  0  0
 11 13  2  0  0  0  0
 11 14  1  0  0  0  0
 12 15  2  0  0  0  0
 12 16  1  0  0  0  0
 13 17  1  0  0  0  0
 13 37  1  0  0  0  0
 14 19  2  0  0  0  0
 14 38  1  0  0  0  0
 15 20  1  0  0  0  0
 15 39  1  0  0  0  0
 16 21  2  0  0  0  0
 16 40  1  0  0  0  0
 17 18  2  0  0  0  0
 18 19  1  0  0  0  0
 19 41  1  0  0  0  0
 20 22  2  0  0  0  0
 21 22  1  0  0  0  0
 21 42  1  0  0  0  0
 23 43  1  0  0  0  0
 23 44  1  0  0  0  0
 24 46  1  0  0  0  0
 24 47  1  0  0  0  0
 24 48  1  0  0  0  0
M  END
> <PUBCHEM_COMPOUND_CID>
10404245

> <PUBCHEM_CONFORMER_RMSD>
0.8

> <PUBCHEM_CONFORMER_DIVERSEORDER>
10
132
154
166
135
81
90
99
85
115
171
107
69
67
78
56
72
153
66
168
73
70
20
110
151
26
87
97
144
86
57
133
145
147
114
121
105
91
52
34
80
58
93
61
150
130
122
77
28
76
94
84
23
75
12
83
164
134
63
65
126
51
24
96
64
170
88
31
102
6
41
60
125
68
116
138
19
27
14
92
111
95
119
159
136
82
29
142
89
156
49
7
123
30
143
160
17
152
36
22
25
161
155
1
127
146
16
163
148
162
33
46
44
139
167
59
120
71
117
141
128
74
35
48
2
101
112
40
62
54
13
169
8
39
157
108
140
131
18
15
100
37
165
9
55
104
149
113
3
5
109
173
103
11
158
4
50
21
118
124
137
129
172
45
38
32
98
47
43
106
79
42
53

> <PUBCHEM_MMFF94_PARTIAL_CHARGES>
27
1 -0.36
11 -0.14
12 -0.14
13 -0.15
14 -0.15
15 -0.15
16 -0.15
17 0.08
18 0.08
19 -0.15
2 -0.36
20 0.08
21 -0.15
22 0.08
23 0.56
24 0.28
3 -0.36
37 0.15
38 0.15
39 0.15
4 -0.53
40 0.15
41 0.15
42 0.15
45 0.45
7 0.14
8 0.14

> <PUBCHEM_EFFECTIVE_ROTOR_COUNT>
6.6

> <PUBCHEM_PHARMACOPHORE_FEATURES>
10
1 1 acceptor
1 10 hydrophobe
1 2 acceptor
1 3 acceptor
1 4 donor
1 9 hydrophobe
4 5 6 7 8 hydrophobe
5 1 2 17 18 23 rings
6 11 13 14 17 18 19 rings
6 12 15 16 20 21 22 rings

> <PUBCHEM_HEAVY_ATOM_COUNT>
24

> <PUBCHEM_ATOM_DEF_STEREO_COUNT>
2

> <PUBCHEM_ATOM_UDEF_STEREO_COUNT>
0

> <PUBCHEM_BOND_DEF_STEREO_COUNT>
0

> <PUBCHEM_BOND_UDEF_STEREO_COUNT>
0

> <PUBCHEM_ISOTOPIC_ATOM_COUNT>
0

> <PUBCHEM_COMPONENT_COUNT>
1

> <PUBCHEM_CACTVS_TAUTO_COUNT>
3

> <PUBCHEM_CONFORMER_ID>
009EC1950000000A

> <PUBCHEM_MMFF94_ENERGY>
74.4093

> <PUBCHEM_FEATURE_SELFOVERLAP>
51.047

> <PUBCHEM_SHAPE_FINGERPRINT>
10498660 4 18341617057180624338
10591671 39 18334867146792415767
11089746 13 18333729087901931138
11961588 58 18334568075186903107
12107183 9 18261944151700312178
12403260 363 18269270153871760099
12596602 18 17240481446192741827
12788726 201 18047178928252101874
13103583 49 11747224507001965847
13402501 40 18411138034690879449
14251764 30 11887657520973482509
14251764 38 18269277859111433257
14257110 125 18335701658689848690
14528608 73 18410853239799030797
14739800 52 18261659459428580368
14767858 380 18342162406927980575
14787075 74 18272082799827291947
14931854 50 18343304755916423388
15196674 1 18410293575358499441
15961568 22 18334014986389177509
17834072 32 18411422782542965392
18608769 82 18266742557529179107
21033648 29 18411975866883051504
21315764 268 18260824874062898580
221357 26 18273495667383426752
22950370 63 9799397941184483947
23227448 37 18339644550326339302
23559900 14 18339072817624363977
245318 6 17823437030983315420
2838139 119 18409163294695589708
335352 9 18411140226221225774
474 4 18268147552805398483
67856867 119 18118114767601153299
7288768 16 17822007666025208594
7808743 9 18337107977264616016
9981440 41 18260274018990922195

> <PUBCHEM_SHAPE_MULTIPOLES>
470.43
14.43
3.52
0.93
0.32
0.42
-0.09
-9.71
-2.8
0.26
-0.25
0.14
0.34
0.41

> <PUBCHEM_SHAPE_SELFOVERLAP>
1005.536

> <PUBCHEM_SHAPE_VOLUME>
262.6

> <PUBCHEM_COORDINATE_TYPE>
2
5
10

$$$$
