156517
  -OEChem-11202003283D

 49 51  0     1  0  0  0  0  0999 V2000
    0.1014    0.7905   -1.0277 O   0  0  0  0  0  0  0  0  0  0  0  0
    3.4481   -2.6444    0.3582 O   0  0  0  0  0  0  0  0  0  0  0  0
   -5.6544   -0.6429   -0.3481 O   0  0  0  0  0  0  0  0  0  0  0  0
    5.9156   -1.3866    0.1212 O   0  0  0  0  0  0  0  0  0  0  0  0
   -4.6228   -2.9063    0.8926 O   0  0  0  0  0  0  0  0  0  0  0  0
    0.5469    2.1039    0.8709 C   0  0  1  0  0  0  0  0  0  0  0  0
   -0.9158    2.3598    0.4925 C   0  0  2  0  0  0  0  0  0  0  0  0
    1.1391    1.5981   -0.4439 C   0  0  1  0  0  0  0  0  0  0  0  0
   -1.1744    1.3272   -0.6240 C   0  0  2  0  0  0  0  0  0  0  0  0
    1.3030    3.2767    1.4795 C   0  0  0  0  0  0  0  0  0  0  0  0
   -1.2095    3.7762   -0.0110 C   0  0  0  0  0  0  0  0  0  0  0  0
    2.4103    0.7996   -0.2925 C   0  0  0  0  0  0  0  0  0  0  0  0
   -2.0971    0.1999   -0.2205 C   0  0  0  0  0  0  0  0  0  0  0  0
    2.3472   -0.5695   -0.0338 C   0  0  0  0  0  0  0  0  0  0  0  0
   -3.4680    0.2929   -0.4700 C   0  0  0  0  0  0  0  0  0  0  0  0
    3.6484    1.4308   -0.4113 C   0  0  0  0  0  0  0  0  0  0  0  0
   -1.5816   -0.9385    0.4029 C   0  0  0  0  0  0  0  0  0  0  0  0
    3.5225   -1.3078    0.1059 C   0  0  0  0  0  0  0  0  0  0  0  0
   -4.3194   -0.7476   -0.0980 C   0  0  0  0  0  0  0  0  0  0  0  0
    4.8236    0.6926   -0.2714 C   0  0  0  0  0  0  0  0  0  0  0  0
   -2.4329   -1.9788    0.7751 C   0  0  0  0  0  0  0  0  0  0  0  0
    4.7608   -0.6767   -0.0129 C   0  0  0  0  0  0  0  0  0  0  0  0
   -3.8018   -1.8834    0.5246 C   0  0  0  0  0  0  0  0  0  0  0  0
    3.4131   -3.5160   -0.7703 C   0  0  0  0  0  0  0  0  0  0  0  0
   -6.1023    0.5506   -0.9880 C   0  0  0  0  0  0  0  0  0  0  0  0
    0.5506    1.2855    1.6052 H   0  0  0  0  0  0  0  0  0  0  0  0
   -1.5640    2.1892    1.3613 H   0  0  0  0  0  0  0  0  0  0  0  0
    1.3134    2.4268   -1.1431 H   0  0  0  0  0  0  0  0  0  0  0  0
   -1.5894    1.8067   -1.5196 H   0  0  0  0  0  0  0  0  0  0  0  0
    0.7648    3.6739    2.3463 H   0  0  0  0  0  0  0  0  0  0  0  0
    2.2939    2.9637    1.8241 H   0  0  0  0  0  0  0  0  0  0  0  0
    1.4452    4.0897    0.7604 H   0  0  0  0  0  0  0  0  0  0  0  0
   -1.0588    4.5152    0.7823 H   0  0  0  0  0  0  0  0  0  0  0  0
   -0.5710    4.0474   -0.8583 H   0  0  0  0  0  0  0  0  0  0  0  0
   -2.2523    3.8568   -0.3370 H   0  0  0  0  0  0  0  0  0  0  0  0
    1.4038   -1.0899    0.0514 H   0  0  0  0  0  0  0  0  0  0  0  0
   -3.8129    1.2009   -0.9533 H   0  0  0  0  0  0  0  0  0  0  0  0
    3.7107    2.4970   -0.6122 H   0  0  0  0  0  0  0  0  0  0  0  0
   -0.5344   -1.0250    0.6526 H   0  0  0  0  0  0  0  0  0  0  0  0
    5.7816    1.1970   -0.3661 H   0  0  0  0  0  0  0  0  0  0  0  0
   -2.0180   -2.8537    1.2686 H   0  0  0  0  0  0  0  0  0  0  0  0
    6.6719   -0.7857    0.0070 H   0  0  0  0  0  0  0  0  0  0  0  0
   -4.0902   -3.6064    1.3076 H   0  0  0  0  0  0  0  0  0  0  0  0
    4.3184   -3.4015   -1.3747 H   0  0  0  0  0  0  0  0  0  0  0  0
    2.5261   -3.3174   -1.3802 H   0  0  0  0  0  0  0  0  0  0  0  0
    3.3636   -4.5459   -0.4063 H   0  0  0  0  0  0  0  0  0  0  0  0
   -5.6783    0.6538   -1.9928 H   0  0  0  0  0  0  0  0  0  0  0  0
   -5.9230    1.4341   -0.3659 H   0  0  0  0  0  0  0  0  0  0  0  0
   -7.1871    0.4631   -1.1092 H   0  0  0  0  0  0  0  0  0  0  0  0
  1  8  1  0  0  0  0
  1  9  1  0  0  0  0
  2 18  1  0  0  0  0
  2 24  1  0  0  0  0
  3 19  1  0  0  0  0
  3 25  1  0  0  0  0
  4 22  1  0  0  0  0
  4 42  1  0  0  0  0
  5 23  1  0  0  0  0
  5 43  1  0  0  0  0
  6  7  1  0  0  0  0
  6  8  1  0  0  0  0
  6 10  1  0  0  0  0
  6 26  1  0  0  0  0
  7  9  1  0  0  0  0
  7 11  1  0  0  0  0
  7 27  1  0  0  0  0
  8 12  1  0  0  0  0
  8 28  1  0  0  0  0
  9 13  1  0  0  0  0
  9 29  1  0  0  0  0
 10 30  1  0  0  0  0
 10 31  1  0  0  0  0
 10 32  1  0  0  0  0
 11 33  1  0  0  0  0
 11 34  1  0  0  0  0
 11 35  1  0  0  0  0
 12 14  2  0  0  0  0
 12 16  1  0  0  0  0
 13 15  2  0  0  0  0
 13 17  1  0  0  0  0
 14 18  1  0  0  0  0
 14 36  1  0  0  0  0
 15 19  1  0  0  0  0
 15 37  1  0  0  0  0
 16 20  2  0  0  0  0
 16 38  1  0  0  0  0
 17 21  2  0  0  0  0
 17 39  1  0  0  0  0
 18 22  2  0  0  0  0
 19 23  2  0  0  0  0
 20 22  1  0  0  0  0
 20 40  1  0  0  0  0
 21 23  1  0  0  0  0
 21 41  1  0  0  0  0
 24 44  1  0  0  0  0
 24 45  1  0  0  0  0
 24 46  1  0  0  0  0
 25 47  1  0  0  0  0
 25 48  1  0  0  0  0
 25 49  1  0  0  0  0
M  END
> <PUBCHEM_COMPOUND_CID>
156517

> <PUBCHEM_CONFORMER_RMSD>
0.8

> <PUBCHEM_CONFORMER_DIVERSEORDER>
55
30
42
65
38
19
15
49
57
44
6
48
53
50
40
62
8
24
47
31
51
36
61
33
60
16
41
18
59
13
34
20
39
3
21
29
56
14
52
46
32
43
9
37
63
27
7
2
23
54
12
35
28
64
25
45
1
4
22
5
26
58
11
17
10

> <PUBCHEM_MMFF94_PARTIAL_CHARGES>
29
1 -0.56
12 -0.14
13 -0.14
14 -0.15
15 -0.15
16 -0.15
17 -0.15
18 0.08
19 0.08
2 -0.36
20 -0.15
21 -0.15
22 0.08
23 0.08
24 0.28
25 0.28
3 -0.36
36 0.15
37 0.15
38 0.15
39 0.15
4 -0.53
40 0.15
41 0.15
42 0.45
43 0.45
5 -0.53
8 0.42
9 0.42

> <PUBCHEM_EFFECTIVE_ROTOR_COUNT>
5

> <PUBCHEM_PHARMACOPHORE_FEATURES>
8
1 1 acceptor
1 2 acceptor
1 3 acceptor
1 4 donor
1 5 donor
5 1 6 7 8 9 rings
6 12 14 16 18 20 22 rings
6 13 15 17 19 21 23 rings

> <PUBCHEM_HEAVY_ATOM_COUNT>
25

> <PUBCHEM_ATOM_DEF_STEREO_COUNT>
4

> <PUBCHEM_ATOM_UDEF_STEREO_COUNT>
0

> <PUBCHEM_BOND_DEF_STEREO_COUNT>
0

> <PUBCHEM_BOND_UDEF_STEREO_COUNT>
0

> <PUBCHEM_ISOTOPIC_ATOM_COUNT>
0

> <PUBCHEM_COMPONENT_COUNT>
1

> <PUBCHEM_CACTVS_TAUTO_COUNT>
5

> <PUBCHEM_CONFORMER_ID>
0002636500000037

> <PUBCHEM_MMFF94_ENERGY>
92.1049

> <PUBCHEM_FEATURE_SELFOVERLAP>
40.597

> <PUBCHEM_SHAPE_FINGERPRINT>
10616163 171 18339927004988181662
10835480 77 18334850671013519077
11796584 16 18040990756782995579
12506688 2 18410858784728378000
12516196 113 18343862242417632440
12553582 1 18271235114642377798
12596602 18 16845295011360988114
12760667 363 18341330011409791061
12788726 201 18336541603816201641
13004483 165 18338507565019040004
13103583 49 18059032664848022699
13402501 40 18334295404629807618
13533116 47 18343017770279770503
13544653 18 18336553788754457804
13583140 156 18127410275256804959
13631057 29 18340208497434664808
14251757 17 17968648324766883191
14790565 3 17690281513184407537
14866123 147 18051415063749796817
14931854 50 18188208693684878358
15183329 4 18334852797638774709
15196674 1 18261675973092717807
15352361 1 18409450292974129066
15664445 248 17531241824607906500
15927050 60 17620473502904297973
17492 89 18125438614569534918
18222031 100 17489594488679120524
20832881 197 18412261744654765009
21033648 29 14548742750974141249
21250096 35 18413108372380672211
21267235 1 18411423878292538286
21279426 13 18263921039120233573
21285901 2 18040710346810377823
2215653 11 18409720786283654791
23559900 14 18335415832896027597
2871803 45 18333449837760042522
3004659 81 18113334211133251502
314194 84 18343580780410401831
335352 9 18408602561778840789
3421961 26 18268993261662051513
46194498 28 17170111697340896701
463206 1 18338236093053589822
5104073 3 18199742562787297464
5283173 99 18187356580889796357
5309563 4 18340209690634330539
5486654 2 18267029547681870940
9709674 26 18267587905824421502

> <PUBCHEM_SHAPE_MULTIPOLES>
485.14
11.98
3.98
0.96
3.55
0.46
-0.09
-7.93
1.57
-1.04
-0.89
0.3
0.21
1.16

> <PUBCHEM_SHAPE_SELFOVERLAP>
1039.555

> <PUBCHEM_SHAPE_VOLUME>
271.5

> <PUBCHEM_COORDINATE_TYPE>
2
5
10

$$$$
