44583852
  -OEChem-11202003183D

 96100  0     1  0  0  0  0  0999 V2000
   -1.5225   -0.4110   -0.2886 O   0  0  0  0  0  0  0  0  0  0  0  0
    4.9652    1.1617    2.8654 O   0  0  0  0  0  0  0  0  0  0  0  0
   -2.1328   -2.6630   -0.3009 O   0  0  0  0  0  0  0  0  0  0  0  0
   -4.1036    0.2606    0.6574 O   0  0  0  0  0  0  0  0  0  0  0  0
   -6.1267   -1.7152   -0.1696 O   0  0  0  0  0  0  0  0  0  0  0  0
   -5.2612   -4.3908    0.4997 O   0  0  0  0  0  0  0  0  0  0  0  0
   -4.5754    1.3923   -1.3744 O   0  0  0  0  0  0  0  0  0  0  0  0
   -1.1404   -5.2090   -0.0041 O   0  0  0  0  0  0  0  0  0  0  0  0
   -6.4097    3.0172    0.1273 O   0  0  0  0  0  0  0  0  0  0  0  0
   -4.4084    4.5215    1.3425 O   0  0  0  0  0  0  0  0  0  0  0  0
   -2.3472    4.2276   -0.6097 O   0  0  0  0  0  0  0  0  0  0  0  0
    2.1073    0.0628    0.9526 C   0  0  2  0  0  0  0  0  0  0  0  0
    2.8197   -0.1970   -0.4795 C   0  0  1  0  0  0  0  0  0  0  0  0
    0.5224    0.3732    0.8268 C   0  0  0  0  0  0  0  0  0  0  0  0
    4.3291   -0.6360   -0.2395 C   0  0  2  0  0  0  0  0  0  0  0  0
    2.0309   -1.3085   -1.2256 C   0  0  0  0  0  0  0  0  0  0  0  0
   -0.1563   -0.7436   -0.0299 C   0  0  2  0  0  0  0  0  0  0  0  0
    2.8728    1.1938    1.6913 C   0  0  0  0  0  0  0  0  0  0  0  0
    0.5371   -1.0185   -1.3618 C   0  0  0  0  0  0  0  0  0  0  0  0
    2.2590   -1.2084    1.8763 C   0  0  0  0  0  0  0  0  0  0  0  0
    2.8624    1.0506   -1.4059 C   0  0  0  0  0  0  0  0  0  0  0  0
    5.0559    0.3767    0.6216 C   0  0  0  0  0  0  0  0  0  0  0  0
    5.1482   -1.0364   -1.4980 C   0  0  0  0  0  0  0  0  0  0  0  0
    0.1752    1.7722    0.2492 C   0  0  0  0  0  0  0  0  0  0  0  0
   -0.1852    0.3677    2.2197 C   0  0  0  0  0  0  0  0  0  0  0  0
    4.3570    0.9063    1.8278 C   0  0  0  0  0  0  0  0  0  0  0  0
    6.1541    0.0155   -1.9736 C   0  0  0  0  0  0  0  0  0  0  0  0
    7.0896    0.5104   -0.8507 C   0  0  2  0  0  0  0  0  0  0  0  0
    6.2796    0.8710    0.3731 C   0  0  0  0  0  0  0  0  0  0  0  0
   -2.4056   -1.3845    0.2679 C   0  0  2  0  0  0  0  0  0  0  0  0
    7.8336    1.7627   -1.3501 C   0  0  0  0  0  0  0  0  0  0  0  0
    8.1080   -0.5471   -0.5043 C   0  0  0  0  0  0  0  0  0  0  0  0
   -3.8385   -0.9535   -0.0448 C   0  0  1  0  0  0  0  0  0  0  0  0
   -4.8463   -2.0193    0.3859 C   0  0  2  0  0  0  0  0  0  0  0  0
   -2.9689   -3.6905    0.2343 C   0  0  1  0  0  0  0  0  0  0  0  0
   -4.4325   -3.4049   -0.1104 C   0  0  1  0  0  0  0  0  0  0  0  0
    8.2542   -1.0740    0.7161 C   0  0  0  0  0  0  0  0  0  0  0  0
   -2.4993   -5.0179   -0.3526 C   0  0  0  0  0  0  0  0  0  0  0  0
   -5.0275    1.0781   -0.0527 C   0  0  2  0  0  0  0  0  0  0  0  0
   -5.3024    2.3547    0.7400 C   0  0  1  0  0  0  0  0  0  0  0  0
   -4.0791    3.2729    0.7381 C   0  0  1  0  0  0  0  0  0  0  0  0
   -3.3826    2.1820   -1.4142 C   0  0  2  0  0  0  0  0  0  0  0  0
   -3.5817    3.5189   -0.6869 C   0  0  2  0  0  0  0  0  0  0  0  0
   -3.0273    2.3788   -2.8855 C   0  0  0  0  0  0  0  0  0  0  0  0
    4.2965   -1.5710    0.3322 H   0  0  0  0  0  0  0  0  0  0  0  0
    2.4231   -1.4510   -2.2385 H   0  0  0  0  0  0  0  0  0  0  0  0
    2.1644   -2.2718   -0.7195 H   0  0  0  0  0  0  0  0  0  0  0  0
   -0.1028   -1.6764    0.5456 H   0  0  0  0  0  0  0  0  0  0  0  0
    2.7883    2.1601    1.1873 H   0  0  0  0  0  0  0  0  0  0  0  0
    2.4762    1.3260    2.7042 H   0  0  0  0  0  0  0  0  0  0  0  0
    0.0536   -1.8772   -1.8456 H   0  0  0  0  0  0  0  0  0  0  0  0
    0.3657   -0.1874   -2.0555 H   0  0  0  0  0  0  0  0  0  0  0  0
    3.2975   -1.4913    2.0636 H   0  0  0  0  0  0  0  0  0  0  0  0
    1.8562   -1.0273    2.8780 H   0  0  0  0  0  0  0  0  0  0  0  0
    1.7614   -2.0918    1.4712 H   0  0  0  0  0  0  0  0  0  0  0  0
    3.3670    0.8194   -2.3496 H   0  0  0  0  0  0  0  0  0  0  0  0
    1.8815    1.4027   -1.7083 H   0  0  0  0  0  0  0  0  0  0  0  0
    3.3898    1.8962   -0.9565 H   0  0  0  0  0  0  0  0  0  0  0  0
    5.7082   -1.9514   -1.2584 H   0  0  0  0  0  0  0  0  0  0  0  0
    4.5052   -1.3147   -2.3365 H   0  0  0  0  0  0  0  0  0  0  0  0
    0.1948    1.8108   -0.8391 H   0  0  0  0  0  0  0  0  0  0  0  0
   -0.8472    2.0477    0.5218 H   0  0  0  0  0  0  0  0  0  0  0  0
    0.8115    2.5660    0.6444 H   0  0  0  0  0  0  0  0  0  0  0  0
   -1.2354    0.6751    2.1450 H   0  0  0  0  0  0  0  0  0  0  0  0
   -0.2011   -0.6264    2.6766 H   0  0  0  0  0  0  0  0  0  0  0  0
    0.2937    1.0612    2.9173 H   0  0  0  0  0  0  0  0  0  0  0  0
    5.6045    0.8657   -2.3967 H   0  0  0  0  0  0  0  0  0  0  0  0
    6.7389   -0.4025   -2.8040 H   0  0  0  0  0  0  0  0  0  0  0  0
    6.7241    1.5902    1.0598 H   0  0  0  0  0  0  0  0  0  0  0  0
   -2.2526   -1.4176    1.3546 H   0  0  0  0  0  0  0  0  0  0  0  0
    7.1359    2.5773   -1.5794 H   0  0  0  0  0  0  0  0  0  0  0  0
    8.5417    2.1389   -0.6012 H   0  0  0  0  0  0  0  0  0  0  0  0
    8.4036    1.5498   -2.2626 H   0  0  0  0  0  0  0  0  0  0  0  0
    8.7599   -0.9004   -1.3002 H   0  0  0  0  0  0  0  0  0  0  0  0
   -3.9107   -0.8084   -1.1308 H   0  0  0  0  0  0  0  0  0  0  0  0
   -4.9753   -2.0135    1.4746 H   0  0  0  0  0  0  0  0  0  0  0  0
   -2.8199   -3.7290    1.3220 H   0  0  0  0  0  0  0  0  0  0  0  0
   -4.5897   -3.4707   -1.1940 H   0  0  0  0  0  0  0  0  0  0  0  0
    7.6691   -0.8032    1.5853 H   0  0  0  0  0  0  0  0  0  0  0  0
    9.0146   -1.8335    0.8741 H   0  0  0  0  0  0  0  0  0  0  0  0
   -3.0832   -5.8579    0.0354 H   0  0  0  0  0  0  0  0  0  0  0  0
   -2.5643   -5.0056   -1.4458 H   0  0  0  0  0  0  0  0  0  0  0  0
   -5.9804    0.5586   -0.1700 H   0  0  0  0  0  0  0  0  0  0  0  0
   -6.0433   -1.7131   -1.1385 H   0  0  0  0  0  0  0  0  0  0  0  0
   -5.1195   -4.3493    1.4609 H   0  0  0  0  0  0  0  0  0  0  0  0
   -5.5853    2.1282    1.7745 H   0  0  0  0  0  0  0  0  0  0  0  0
   -3.2774    2.8292    1.3415 H   0  0  0  0  0  0  0  0  0  0  0  0
   -2.5627    1.6293   -0.9565 H   0  0  0  0  0  0  0  0  0  0  0  0
   -4.2922    4.1558   -1.2268 H   0  0  0  0  0  0  0  0  0  0  0  0
   -0.8608   -6.0557   -0.3918 H   0  0  0  0  0  0  0  0  0  0  0  0
   -7.1823    2.4317    0.2042 H   0  0  0  0  0  0  0  0  0  0  0  0
   -2.0983    2.9447   -3.0022 H   0  0  0  0  0  0  0  0  0  0  0  0
   -2.9074    1.4088   -3.3803 H   0  0  0  0  0  0  0  0  0  0  0  0
   -3.8294    2.9053   -3.4143 H   0  0  0  0  0  0  0  0  0  0  0  0
   -4.7285    4.3355    2.2417 H   0  0  0  0  0  0  0  0  0  0  0  0
   -1.7680    3.7773    0.0242 H   0  0  0  0  0  0  0  0  0  0  0  0
  1 17  1  0  0  0  0
  1 30  1  0  0  0  0
  2 26  2  0  0  0  0
  3 30  1  0  0  0  0
  3 35  1  0  0  0  0
  4 33  1  0  0  0  0
  4 39  1  0  0  0  0
  5 34  1  0  0  0  0
  5 84  1  0  0  0  0
  6 36  1  0  0  0  0
  6 85  1  0  0  0  0
  7 39  1  0  0  0  0
  7 42  1  0  0  0  0
  8 38  1  0  0  0  0
  8 90  1  0  0  0  0
  9 40  1  0  0  0  0
  9 91  1  0  0  0  0
 10 41  1  0  0  0  0
 10 95  1  0  0  0  0
 11 43  1  0  0  0  0
 11 96  1  0  0  0  0
 12 13  1  0  0  0  0
 12 14  1  0  0  0  0
 12 18  1  0  0  0  0
 12 20  1  0  0  0  0
 13 15  1  0  0  0  0
 13 16  1  0  0  0  0
 13 21  1  0  0  0  0
 14 17  1  0  0  0  0
 14 24  1  0  0  0  0
 14 25  1  0  0  0  0
 15 22  1  0  0  0  0
 15 23  1  0  0  0  0
 15 45  1  0  0  0  0
 16 19  1  0  0  0  0
 16 46  1  0  0  0  0
 16 47  1  0  0  0  0
 17 19  1  0  0  0  0
 17 48  1  0  0  0  0
 18 26  1  0  0  0  0
 18 49  1  0  0  0  0
 18 50  1  0  0  0  0
 19 51  1  0  0  0  0
 19 52  1  0  0  0  0
 20 53  1  0  0  0  0
 20 54  1  0  0  0  0
 20 55  1  0  0  0  0
 21 56  1  0  0  0  0
 21 57  1  0  0  0  0
 21 58  1  0  0  0  0
 22 26  1  0  0  0  0
 22 29  2  0  0  0  0
 23 27  1  0  0  0  0
 23 59  1  0  0  0  0
 23 60  1  0  0  0  0
 24 61  1  0  0  0  0
 24 62  1  0  0  0  0
 24 63  1  0  0  0  0
 25 64  1  0  0  0  0
 25 65  1  0  0  0  0
 25 66  1  0  0  0  0
 27 28  1  0  0  0  0
 27 67  1  0  0  0  0
 27 68  1  0  0  0  0
 28 29  1  0  0  0  0
 28 31  1  0  0  0  0
 28 32  1  0  0  0  0
 29 69  1  0  0  0  0
 30 33  1  0  0  0  0
 30 70  1  0  0  0  0
 31 71  1  0  0  0  0
 31 72  1  0  0  0  0
 31 73  1  0  0  0  0
 32 37  2  0  0  0  0
 32 74  1  0  0  0  0
 33 34  1  0  0  0  0
 33 75  1  0  0  0  0
 34 36  1  0  0  0  0
 34 76  1  0  0  0  0
 35 36  1  0  0  0  0
 35 38  1  0  0  0  0
 35 77  1  0  0  0  0
 36 78  1  0  0  0  0
 37 79  1  0  0  0  0
 37 80  1  0  0  0  0
 38 81  1  0  0  0  0
 38 82  1  0  0  0  0
 39 40  1  0  0  0  0
 39 83  1  0  0  0  0
 40 41  1  0  0  0  0
 40 86  1  0  0  0  0
 41 43  1  0  0  0  0
 41 87  1  0  0  0  0
 42 43  1  0  0  0  0
 42 44  1  0  0  0  0
 42 88  1  0  0  0  0
 43 89  1  0  0  0  0
 44 92  1  0  0  0  0
 44 93  1  0  0  0  0
 44 94  1  0  0  0  0
M  END
> <PUBCHEM_COMPOUND_CID>
44583852

> <PUBCHEM_CONFORMER_RMSD>
1.2

> <PUBCHEM_CONFORMER_DIVERSEORDER>
1
8
22
33
41
19
38
45
28
29
27
46
21
3
32
25
5
37
11
26
43
50
10
20
24
23
14
13
48
34
17
36
47
40
49
4
30
15
7
9
35
44
6
18
31
39
16
12
42
2

> <PUBCHEM_MMFF94_PARTIAL_CHARGES>
41
1 -0.56
10 -0.68
11 -0.68
15 0.14
17 0.28
18 0.06
2 -0.57
22 -0.12
26 0.49
28 0.28
29 -0.29
3 -0.56
30 0.56
32 -0.29
33 0.28
34 0.28
35 0.28
36 0.28
37 -0.3
38 0.28
39 0.56
4 -0.56
40 0.28
41 0.28
42 0.28
43 0.28
5 -0.68
6 -0.68
69 0.15
7 -0.56
74 0.15
79 0.15
8 -0.68
80 0.15
84 0.4
85 0.4
9 -0.68
90 0.4
91 0.4
95 0.4
96 0.4

> <PUBCHEM_EFFECTIVE_ROTOR_COUNT>
10

> <PUBCHEM_PHARMACOPHORE_FEATURES>
24
1 1 acceptor
1 10 acceptor
1 10 donor
1 11 acceptor
1 11 donor
1 2 acceptor
1 3 acceptor
1 37 hydrophobe
1 4 acceptor
1 5 acceptor
1 5 donor
1 6 acceptor
1 6 donor
1 7 acceptor
1 8 acceptor
1 8 donor
1 9 acceptor
1 9 donor
3 14 24 25 hydrophobe
6 12 13 14 16 17 19 rings
6 12 13 15 18 22 26 rings
6 15 22 23 27 28 29 rings
6 3 30 33 34 35 36 rings
6 7 39 40 41 42 43 rings

> <PUBCHEM_HEAVY_ATOM_COUNT>
44

> <PUBCHEM_ATOM_DEF_STEREO_COUNT>
15

> <PUBCHEM_ATOM_UDEF_STEREO_COUNT>
0

> <PUBCHEM_BOND_DEF_STEREO_COUNT>
0

> <PUBCHEM_BOND_UDEF_STEREO_COUNT>
0

> <PUBCHEM_ISOTOPIC_ATOM_COUNT>
0

> <PUBCHEM_COMPONENT_COUNT>
1

> <PUBCHEM_CACTVS_TAUTO_COUNT>
2

> <PUBCHEM_CONFORMER_ID>
02A84BAC00000001

> <PUBCHEM_MMFF94_ENERGY>
171.8997

> <PUBCHEM_FEATURE_SELFOVERLAP>
121.96

> <PUBCHEM_SHAPE_FINGERPRINT>
10010297 198 16951674788646519018
10165383 225 18341055104393293561
10290309 65 18120088386814881845
10670039 82 18333729122013327487
10940486 97 18335426810921867093
11062273 23 18334853953191199451
11434127 23 18272083856215356085
12128747 34 18273219672959293342
13690498 29 18338236093095540886
13692115 27 17971189477361243311
13782708 43 17845371214321077958
14117953 113 18337662123289695127
14202776 33 17894909637542607541
14294032 229 18114176398654850861
14856354 85 18261395601912423231
15021287 119 16878232999716262340
15183329 4 18040432192323473196
15230672 131 18337952273694856458
15297060 5 18270402685777976057
15328829 1 17240762917096323206
15361156 5 18128254695243636671
15419008 47 18129946792272957385
15439362 3 18050290259091126415
15876981 60 18115033016833145077
17686467 74 18043531831350324672
18608769 82 18411983576633800660
21033648 29 18131338722934187752
21033650 10 18334018314946263818
21779490 97 17823678923594491395
21792961 116 17703519810061421348
21927370 108 17749682886973015499
23522609 53 17823157708386379300
23559900 14 18059857281441700440
23569914 152 16193415149100027172
23569943 247 16371827588481178346
24771293 8 17749956691386731684
25223398 141 18341898528099848598
3418910 222 17972888230878197404
4015057 19 16558457673496809632
4098825 35 18334859386271548486
4144715 1 18267868457498903064
4435113 14 17916881114187053244
508706 21 18342730832700712733
5265222 85 18411705361431863515
563151 40 18260551095662587290
57527295 17 17417237716346903279
6700243 42 17695953094517407663
6703917 75 18269568165179487425
9831232 110 18270411499789625510

> <PUBCHEM_SHAPE_MULTIPOLES>
840.94
19.57
5.32
1.9
26.39
3.29
-0.1
-3.74
2.07
-13.92
0.24
1.73
-1.12
0.44

> <PUBCHEM_SHAPE_SELFOVERLAP>
1769.856

> <PUBCHEM_SHAPE_VOLUME>
467.2

> <PUBCHEM_COORDINATE_TYPE>
2
5
10

$$$$
