11078392
  -OEChem-11202003313D

 47 50  0     1  0  0  0  0  0999 V2000
   -0.1321   -0.0191   -0.5423 O   0  0  0  0  0  0  0  0  0  0  0  0
   -4.4425   -2.1208    1.1929 O   0  0  0  0  0  0  0  0  0  0  0  0
   -6.2602   -1.0324    0.0443 O   0  0  0  0  0  0  0  0  0  0  0  0
    5.6419   -0.4826    1.3678 O   0  0  0  0  0  0  0  0  0  0  0  0
    5.9415   -1.8400   -1.0386 O   0  0  0  0  0  0  0  0  0  0  0  0
   -0.6770    2.0451    0.5201 C   0  0  2  0  0  0  0  0  0  0  0  0
    0.8389    1.8385    0.5905 C   0  0  1  0  0  0  0  0  0  0  0  0
   -1.0866    1.0627   -0.5852 C   0  0  2  0  0  0  0  0  0  0  0  0
    0.9035    0.3126    0.4042 C   0  0  2  0  0  0  0  0  0  0  0  0
   -1.1609    3.4682    0.2828 C   0  0  0  0  0  0  0  0  0  0  0  0
    1.6160    2.6304   -0.4679 C   0  0  0  0  0  0  0  0  0  0  0  0
   -2.4900    0.5266   -0.4382 C   0  0  0  0  0  0  0  0  0  0  0  0
    2.2466   -0.2596    0.0227 C   0  0  0  0  0  0  0  0  0  0  0  0
   -2.7269   -0.5957    0.3619 C   0  0  0  0  0  0  0  0  0  0  0  0
   -3.5536    1.1604   -1.1081 C   0  0  0  0  0  0  0  0  0  0  0  0
    3.3420   -0.1088    0.8769 C   0  0  0  0  0  0  0  0  0  0  0  0
    2.4012   -0.9424   -1.1864 C   0  0  0  0  0  0  0  0  0  0  0  0
   -4.0262   -1.0486    0.4652 C   0  0  0  0  0  0  0  0  0  0  0  0
   -4.8601    0.6814   -0.9863 C   0  0  0  0  0  0  0  0  0  0  0  0
   -5.0641   -0.4273   -0.1906 C   0  0  0  0  0  0  0  0  0  0  0  0
    4.5839   -0.6372    0.5240 C   0  0  0  0  0  0  0  0  0  0  0  0
    3.6428   -1.4708   -1.5392 C   0  0  0  0  0  0  0  0  0  0  0  0
    4.7341   -1.3183   -0.6840 C   0  0  0  0  0  0  0  0  0  0  0  0
   -5.8590   -2.1041    0.9219 C   0  0  0  0  0  0  0  0  0  0  0  0
    6.4467    0.6817    1.1918 C   0  0  0  0  0  0  0  0  0  0  0  0
   -1.0954    1.7110    1.4810 H   0  0  0  0  0  0  0  0  0  0  0  0
    1.2271    2.1250    1.5754 H   0  0  0  0  0  0  0  0  0  0  0  0
   -0.9756    1.5153   -1.5786 H   0  0  0  0  0  0  0  0  0  0  0  0
    0.6037   -0.1743    1.3431 H   0  0  0  0  0  0  0  0  0  0  0  0
   -0.8921    3.8328   -0.7138 H   0  0  0  0  0  0  0  0  0  0  0  0
   -2.2507    3.5260    0.3704 H   0  0  0  0  0  0  0  0  0  0  0  0
   -0.7322    4.1495    1.0249 H   0  0  0  0  0  0  0  0  0  0  0  0
    2.6916    2.4422   -0.3943 H   0  0  0  0  0  0  0  0  0  0  0  0
    1.3006    2.3783   -1.4854 H   0  0  0  0  0  0  0  0  0  0  0  0
    1.4802    3.7076   -0.3272 H   0  0  0  0  0  0  0  0  0  0  0  0
   -1.9300   -1.1000    0.8975 H   0  0  0  0  0  0  0  0  0  0  0  0
   -3.3669    2.0333   -1.7291 H   0  0  0  0  0  0  0  0  0  0  0  0
    3.2300    0.4178    1.8216 H   0  0  0  0  0  0  0  0  0  0  0  0
    1.5737   -1.0764   -1.8770 H   0  0  0  0  0  0  0  0  0  0  0  0
   -5.6805    1.1679   -1.5014 H   0  0  0  0  0  0  0  0  0  0  0  0
    3.7540   -1.9997   -2.4819 H   0  0  0  0  0  0  0  0  0  0  0  0
   -6.3967   -2.0001    1.8715 H   0  0  0  0  0  0  0  0  0  0  0  0
   -6.1394   -3.0585    0.4614 H   0  0  0  0  0  0  0  0  0  0  0  0
    6.5724   -1.6786   -0.3161 H   0  0  0  0  0  0  0  0  0  0  0  0
    7.2668    0.6435    1.9140 H   0  0  0  0  0  0  0  0  0  0  0  0
    5.8570    1.5847    1.3791 H   0  0  0  0  0  0  0  0  0  0  0  0
    6.8700    0.7130    0.1829 H   0  0  0  0  0  0  0  0  0  0  0  0
  1  8  1  0  0  0  0
  1  9  1  0  0  0  0
  2 18  1  0  0  0  0
  2 24  1  0  0  0  0
  3 20  1  0  0  0  0
  3 24  1  0  0  0  0
  4 21  1  0  0  0  0
  4 25  1  0  0  0  0
  5 23  1  0  0  0  0
  5 44  1  0  0  0  0
  6  7  1  0  0  0  0
  6  8  1  0  0  0  0
  6 10  1  0  0  0  0
  6 26  1  0  0  0  0
  7  9  1  0  0  0  0
  7 11  1  0  0  0  0
  7 27  1  0  0  0  0
  8 12  1  0  0  0  0
  8 28  1  0  0  0  0
  9 13  1  0  0  0  0
  9 29  1  0  0  0  0
 10 30  1  0  0  0  0
 10 31  1  0  0  0  0
 10 32  1  0  0  0  0
 11 33  1  0  0  0  0
 11 34  1  0  0  0  0
 11 35  1  0  0  0  0
 12 14  2  0  0  0  0
 12 15  1  0  0  0  0
 13 16  2  0  0  0  0
 13 17  1  0  0  0  0
 14 18  1  0  0  0  0
 14 36  1  0  0  0  0
 15 19  2  0  0  0  0
 15 37  1  0  0  0  0
 16 21  1  0  0  0  0
 16 38  1  0  0  0  0
 17 22  2  0  0  0  0
 17 39  1  0  0  0  0
 18 20  2  0  0  0  0
 19 20  1  0  0  0  0
 19 40  1  0  0  0  0
 21 23  2  0  0  0  0
 22 23  1  0  0  0  0
 22 41  1  0  0  0  0
 24 42  1  0  0  0  0
 24 43  1  0  0  0  0
 25 45  1  0  0  0  0
 25 46  1  0  0  0  0
 25 47  1  0  0  0  0
M  END
> <PUBCHEM_COMPOUND_CID>
11078392

> <PUBCHEM_CONFORMER_RMSD>
0.8

> <PUBCHEM_CONFORMER_DIVERSEORDER>
5
25
26
23
12
15
19
4
1
21
24
6
22
13
10
16
20
3
2
7
18
17
9
11
8
14

> <PUBCHEM_MMFF94_PARTIAL_CHARGES>
28
1 -0.56
12 -0.14
13 -0.14
14 -0.15
15 -0.15
16 -0.15
17 -0.15
18 0.08
19 -0.15
2 -0.36
20 0.08
21 0.08
22 -0.15
23 0.08
24 0.56
25 0.28
3 -0.36
36 0.15
37 0.15
38 0.15
39 0.15
4 -0.36
40 0.15
41 0.15
44 0.45
5 -0.53
8 0.42
9 0.42

> <PUBCHEM_EFFECTIVE_ROTOR_COUNT>
4.6

> <PUBCHEM_PHARMACOPHORE_FEATURES>
9
1 1 acceptor
1 2 acceptor
1 3 acceptor
1 4 acceptor
1 5 donor
5 1 6 7 8 9 rings
5 2 3 18 20 24 rings
6 12 14 15 18 19 20 rings
6 13 16 17 21 22 23 rings

> <PUBCHEM_HEAVY_ATOM_COUNT>
25

> <PUBCHEM_ATOM_DEF_STEREO_COUNT>
4

> <PUBCHEM_ATOM_UDEF_STEREO_COUNT>
0

> <PUBCHEM_BOND_DEF_STEREO_COUNT>
0

> <PUBCHEM_BOND_UDEF_STEREO_COUNT>
0

> <PUBCHEM_ISOTOPIC_ATOM_COUNT>
0

> <PUBCHEM_COMPONENT_COUNT>
1

> <PUBCHEM_CACTVS_TAUTO_COUNT>
3

> <PUBCHEM_CONFORMER_ID>
00A90AF800000005

> <PUBCHEM_MMFF94_ENERGY>
81.7704

> <PUBCHEM_FEATURE_SELFOVERLAP>
45.828

> <PUBCHEM_SHAPE_FINGERPRINT>
10 15 18342163502270994754
10670039 82 9295023378896193458
11796584 16 18113330895318460723
12166972 35 17603588517473637068
12236239 1 16515401850341181326
12363563 72 18411993454947844093
12516196 113 18342175574674996481
13402501 40 18411422817040561727
13544653 18 17988923349100215268
13685833 64 18409451410193107891
13740256 8 18408042926880743057
14251751 18 18040995167661686779
14386348 63 18342457023708161495
14840074 17 17561359595649737692
15183329 4 14345792730266986266
15927050 60 17549541160301937068
17138139 8 17458903841966553002
17492 89 18196370317496334846
1813 80 17988657280155553436
193927 3 18411707586288174357
19611394 137 18337952394142890600
1979834 28 17846787320920272734
20028762 73 18059011812930643711
20374829 77 18186518813311479187
20403669 9 18409732872063428875
20567600 70 18334573598509434602
21033648 29 17560219346072367369
21033650 10 17025731260653662356
21521239 73 14201397209211204745
21623969 137 18131069342195167854
23175994 123 18413669115359512205
23402539 116 15068619349035409325
23557571 272 18198906899210907140
23559900 14 18042117812600725085
23569914 152 12040446700267272075
239999 70 18412545401743965094
25222932 49 18263067946614327778
2838139 119 9223234005301585083
3004659 81 18041003946701492678
314173 85 18343023276728673777
314194 84 18060693996415003526
329604 57 18334581256394171924
335352 9 18333726915339160445
3411729 13 18117556447791424672
3421961 26 18342178929023791049
4325135 7 18187929517079608164
437815 12 18413106169869668305
439807 62 17458628956192321451
465052 167 18343027717408463934
5104073 3 17916017959310621170
5718773 13 18266175218594525599
59682541 35 18342165714200413800
59682541 52 13840253784884728178
636775 8 18340220600779989718
6823239 73 18261105322584526457
7495541 125 18113900493654390052
8863177 126 17898302834154486163
9709674 26 17971194974723586371
9862886 166 18040997362215941026

> <PUBCHEM_SHAPE_MULTIPOLES>
485.14
15.17
2.64
1.24
1.84
1.73
-0.09
-9.96
2.29
-1.01
0.14
0.74
-0.31
2.26

> <PUBCHEM_SHAPE_SELFOVERLAP>
1062.113

> <PUBCHEM_SHAPE_VOLUME>
265.6

> <PUBCHEM_COORDINATE_TYPE>
2
5
10

$$$$
