9561736
  -OEChem-11202002133D

 19 19  0     0  0  0  0  0  0999 V2000
    2.5459   -1.0931   -0.0004 O   0  0  0  0  0  0  0  0  0  0  0  0
   -0.8513    0.0344   -0.0007 N   0  0  0  0  0  0  0  0  0  0  0  0
   -2.0184   -0.7234    0.0002 N   0  0  0  0  0  0  0  0  0  0  0  0
   -4.3964   -0.4210    0.0014 N   0  0  0  0  0  0  0  0  0  0  0  0
   -3.0051    1.3920   -0.0013 N   0  0  0  0  0  0  0  0  0  0  0  0
    1.5596   -0.1914   -0.0002 C   0  0  0  0  0  0  0  0  0  0  0  0
    1.9843    1.0830    0.0005 C   0  0  0  0  0  0  0  0  0  0  0  0
    3.3963    0.9874    0.0009 C   0  0  0  0  0  0  0  0  0  0  0  0
    3.6880   -0.3567    0.0002 C   0  0  0  0  0  0  0  0  0  0  0  0
    0.1901   -0.7321   -0.0011 C   0  0  0  0  0  0  0  0  0  0  0  0
   -3.0929    0.0210    0.0005 C   0  0  0  0  0  0  0  0  0  0  0  0
    1.3887    1.9845    0.0007 H   0  0  0  0  0  0  0  0  0  0  0  0
    4.1120    1.7968    0.0015 H   0  0  0  0  0  0  0  0  0  0  0  0
    4.6086   -0.9220    0.0002 H   0  0  0  0  0  0  0  0  0  0  0  0
    0.0997   -1.8344   -0.0010 H   0  0  0  0  0  0  0  0  0  0  0  0
   -5.1757    0.2280    0.0022 H   0  0  0  0  0  0  0  0  0  0  0  0
   -4.6136   -1.4117    0.0028 H   0  0  0  0  0  0  0  0  0  0  0  0
   -2.1060    1.8614   -0.0031 H   0  0  0  0  0  0  0  0  0  0  0  0
   -3.8346    1.9755   -0.0024 H   0  0  0  0  0  0  0  0  0  0  0  0
  1  6  1  0  0  0  0
  1  9  1  0  0  0  0
  2  3  1  0  0  0  0
  2 10  2  0  0  0  0
  3 11  2  0  0  0  0
  4 11  1  0  0  0  0
  4 16  1  0  0  0  0
  4 17  1  0  0  0  0
  5 11  1  0  0  0  0
  5 18  1  0  0  0  0
  5 19  1  0  0  0  0
  6  7  2  0  0  0  0
  6 10  1  0  0  0  0
  7  8  1  0  0  0  0
  7 12  1  0  0  0  0
  8  9  2  0  0  0  0
  8 13  1  0  0  0  0
  9 14  1  0  0  0  0
 10 15  1  0  0  0  0
M  END
> <PUBCHEM_COMPOUND_CID>
9561736

> <PUBCHEM_CONFORMER_RMSD>
0.4

> <PUBCHEM_CONFORMER_DIVERSEORDER>
1
5
6
3
4
2

> <PUBCHEM_MMFF94_PARTIAL_CHARGES>
19
1 -0.28
10 0.47
11 0.55
12 0.15
13 0.15
14 0.15
15 0.06
16 0.4
17 0.4
18 0.4
19 0.4
2 -0.45
3 -0.45
4 -0.85
5 -0.85
6 0.05
7 -0.15
8 -0.15
9 -0.01

> <PUBCHEM_EFFECTIVE_ROTOR_COUNT>
2

> <PUBCHEM_PHARMACOPHORE_FEATURES>
6
1 1 acceptor
1 2 acceptor
1 4 donor
1 5 donor
4 3 4 5 11 cation
5 1 6 7 8 9 rings

> <PUBCHEM_HEAVY_ATOM_COUNT>
11

> <PUBCHEM_ATOM_DEF_STEREO_COUNT>
0

> <PUBCHEM_ATOM_UDEF_STEREO_COUNT>
0

> <PUBCHEM_BOND_DEF_STEREO_COUNT>
1

> <PUBCHEM_BOND_UDEF_STEREO_COUNT>
0

> <PUBCHEM_ISOTOPIC_ATOM_COUNT>
0

> <PUBCHEM_COMPONENT_COUNT>
1

> <PUBCHEM_CACTVS_TAUTO_COUNT>
2

> <PUBCHEM_CONFORMER_ID>
0091E68800000001

> <PUBCHEM_MMFF94_ENERGY>
19.5741

> <PUBCHEM_FEATURE_SELFOVERLAP>
30.5

> <PUBCHEM_SHAPE_FINGERPRINT>
11062470 55 10592043561475930475
12162725 195 18410576184322627121
12932764 1 17418363705888902623
14144814 61 18409448068138599001
14325111 11 18410573985167301379
17802600 8 18410848867548983001
18186145 218 18335421227247779135
190213 19 17530685415799245719
20645477 70 18340486673207235526
20871998 22 18053381003631409910
22485316 2 9295287227094285077
23402539 116 18341603833366703727
23402655 69 18342454824711234285

> <PUBCHEM_SHAPE_MULTIPOLES>
200.58
7.82
1.16
0.57
4.58
0.23
0
0.54
0
-0.22
0
-0.07
0.01
0

> <PUBCHEM_SHAPE_SELFOVERLAP>
413.031

> <PUBCHEM_SHAPE_VOLUME>
115.5

> <PUBCHEM_COORDINATE_TYPE>
2
5
10

$$$$
