841578
  -OEChem-11202003332D

 12 12  0     1  0  0  0  0  0999 V2000
    3.4750   -2.4917    0.0000 O   0  0  0  0  0  0  0  0  0  0  0  0
    2.2542   -4.6417    0.0000 O   0  0  0  0  0  0  0  0  0  0  0  0
    1.4292   -3.2250    0.0000 O   0  0  0  0  0  0  0  0  0  0  0  0
    3.9042   -4.6292    0.0000 O   0  0  0  0  0  0  0  0  0  0  0  0
    4.7250   -3.2000    0.0000 O   0  0  0  0  0  0  0  0  0  0  0  0
    2.6417   -1.0750    0.0000 O   0  0  0  0  0  0  0  0  0  0  0  0
    2.6667   -3.9292    0.0000 C   0  0  3  0  0  0  0  0  0  0  0  0
    2.2542   -3.2292    0.0000 C   0  0  3  0  0  0  0  0  0  0  0  0
    3.4917   -3.9167    0.0000 C   0  0  3  0  0  0  0  0  0  0  0  0
    2.6500   -2.5042    0.0000 C   0  0  3  0  0  0  0  0  0  0  0  0
    3.9000   -3.2000    0.0000 C   0  0  3  0  0  0  0  0  0  0  0  0
    2.2292   -1.7917    0.0000 C   0  0  0  0  0  0  0  0  0  0  0  0
  1 10  1  0  0  0  0
  1 11  1  0  0  0  0
  7  2  1  1  0  0  0
  8  3  1  1  0  0  0
  9  4  1  6  0  0  0
  5 11  1  0  0  0  0
  6 12  1  0  0  0  0
  7  8  1  0  0  0  0
  7  9  1  0  0  0  0
  8 10  1  0  0  0  0
  9 11  1  0  0  0  0
 10 12  1  1  0  0  0
M  END
> <PUBCHEM_COMPOUND_ID_TYPE>
0

> <PUBCHEM_TOTAL_CHARGE>
0

> <PUBCHEM_SUBSTANCE_ID>
841578

> <PUBCHEM_SUBSTANCE_VERSION>
1

> <PUBCHEM_EXT_DATASOURCE_NAME>
BIND

> <PUBCHEM_EXT_DATASOURCE_REGID>
1105

> <PUBCHEM_SUBSTANCE_SYNONYM>
(+)-Galactose
59-23-4
AI3-18440
Cerebrose
D-(+)-Galactose
D-Galactose (9CI)
D-galactopyranose
Galactose
Galactose, D- (8CI)
Galactose, pure
brain sugar
galactopyranose
galactopyranoside

> <PUBCHEM_GENERIC_REGISTRY_NAME>
59-23-4

> <PUBCHEM_XREF_EXT_ID>
1105

> <PUBCHEM_PUBMED_ID>
14596685
15168095

> <PUBCHEM_EXT_DATASOURCE_URL>
http://bind.ca

> <PUBCHEM_EXT_SUBSTANCE_URL>
http://www.bind.ca/Action?pg=3001&butval=search&identifier=smallmoleculeid&searchterm=1105

> <PUBCHEM_CID_ASSOCIATIONS>
6036  1

> <PUBCHEM_COORDINATE_TYPE>
1
3

> <PUBCHEM_BONDANNOTATIONS>
10  12  5
7  2  5
8  3  5
9  4  6

$$$$
