76764608
  -OEChem-09172006393D

 42 43  0     1  0  0  0  0  0999 V2000
   -1.4658    1.6042   -0.3845 O   0  0  0  0  0  0  0  0  0  0  0  0
   -5.0489    2.2302   -0.8355 O   0  0  0  0  0  0  0  0  0  0  0  0
   -4.4663   -3.7121    1.0711 O   0  0  0  0  0  0  0  0  0  0  0  0
    4.2817   -2.4665   -0.5219 O   0  0  0  0  0  0  0  0  0  0  0  0
    6.7411   -1.2150   -0.1852 O   0  0  0  0  0  0  0  0  0  0  0  0
   -0.3952    3.2497    0.8337 O   0  0  0  0  0  0  0  0  0  0  0  0
   -3.8148    1.5293   -0.9740 C   0  0  2  0  0  0  0  0  0  0  0  0
   -3.9882    0.1292   -0.4276 C   0  0  0  0  0  0  0  0  0  0  0  0
   -2.7081    2.3045   -0.2602 C   0  0  0  0  0  0  0  0  0  0  0  0
   -4.2802   -0.0611    0.9230 C   0  0  0  0  0  0  0  0  0  0  0  0
   -3.8566   -0.9712   -1.2745 C   0  0  0  0  0  0  0  0  0  0  0  0
   -4.4409   -1.3519    1.4268 C   0  0  0  0  0  0  0  0  0  0  0  0
   -4.0170   -2.2620   -0.7707 C   0  0  0  0  0  0  0  0  0  0  0  0
   -4.3093   -2.4524    0.5799 C   0  0  0  0  0  0  0  0  0  0  0  0
    3.2220    0.9345    0.2991 C   0  0  0  0  0  0  0  0  0  0  0  0
    3.1677   -0.4191   -0.0332 C   0  0  0  0  0  0  0  0  0  0  0  0
    4.3475   -1.1450   -0.1970 C   0  0  0  0  0  0  0  0  0  0  0  0
   -0.3978    2.1981    0.2134 C   0  0  0  0  0  0  0  0  0  0  0  0
    1.9914    1.6908    0.4699 C   0  0  0  0  0  0  0  0  0  0  0  0
    4.4561    1.5623    0.4678 C   0  0  0  0  0  0  0  0  0  0  0  0
    5.5817   -0.5173   -0.0283 C   0  0  0  0  0  0  0  0  0  0  0  0
    0.7828    1.3360   -0.0201 C   0  0  0  0  0  0  0  0  0  0  0  0
    5.6360    0.8362    0.3043 C   0  0  0  0  0  0  0  0  0  0  0  0
    2.9813   -3.0316   -0.6761 C   0  0  0  0  0  0  0  0  0  0  0  0
   -3.5784    1.4815   -2.0438 H   0  0  0  0  0  0  0  0  0  0  0  0
   -2.6141    3.2984   -0.7163 H   0  0  0  0  0  0  0  0  0  0  0  0
   -2.9459    2.4574    0.7997 H   0  0  0  0  0  0  0  0  0  0  0  0
   -4.3965    0.7832    1.5967 H   0  0  0  0  0  0  0  0  0  0  0  0
   -3.6291   -0.8389   -2.3288 H   0  0  0  0  0  0  0  0  0  0  0  0
   -4.6706   -1.4867    2.4803 H   0  0  0  0  0  0  0  0  0  0  0  0
   -3.9132   -3.1154   -1.4353 H   0  0  0  0  0  0  0  0  0  0  0  0
   -5.7628    1.6551   -1.1602 H   0  0  0  0  0  0  0  0  0  0  0  0
    2.1974   -0.8889   -0.1302 H   0  0  0  0  0  0  0  0  0  0  0  0
    2.0864    2.6163    1.0341 H   0  0  0  0  0  0  0  0  0  0  0  0
    4.5184    2.6168    0.7257 H   0  0  0  0  0  0  0  0  0  0  0  0
    0.6239    0.4428   -0.6135 H   0  0  0  0  0  0  0  0  0  0  0  0
    6.5907    1.3377    0.4385 H   0  0  0  0  0  0  0  0  0  0  0  0
   -4.6638   -3.6570    2.0219 H   0  0  0  0  0  0  0  0  0  0  0  0
    7.4934   -0.6184   -0.0299 H   0  0  0  0  0  0  0  0  0  0  0  0
    2.4185   -3.0140    0.2635 H   0  0  0  0  0  0  0  0  0  0  0  0
    2.4331   -2.5679   -1.5035 H   0  0  0  0  0  0  0  0  0  0  0  0
    3.1190   -4.0852   -0.9410 H   0  0  0  0  0  0  0  0  0  0  0  0
  1  9  1  0  0  0  0
  1 18  1  0  0  0  0
  2  7  1  0  0  0  0
  2 32  1  0  0  0  0
  3 14  1  0  0  0  0
  3 38  1  0  0  0  0
  4 17  1  0  0  0  0
  4 24  1  0  0  0  0
  5 21  1  0  0  0  0
  5 39  1  0  0  0  0
  6 18  2  0  0  0  0
  7  8  1  0  0  0  0
  7  9  1  0  0  0  0
  7 25  1  0  0  0  0
  8 10  2  0  0  0  0
  8 11  1  0  0  0  0
  9 26  1  0  0  0  0
  9 27  1  0  0  0  0
 10 12  1  0  0  0  0
 10 28  1  0  0  0  0
 11 13  2  0  0  0  0
 11 29  1  0  0  0  0
 12 14  2  0  0  0  0
 12 30  1  0  0  0  0
 13 14  1  0  0  0  0
 13 31  1  0  0  0  0
 15 16  2  0  0  0  0
 15 19  1  0  0  0  0
 15 20  1  0  0  0  0
 16 17  1  0  0  0  0
 16 33  1  0  0  0  0
 17 21  2  0  0  0  0
 18 22  1  0  0  0  0
 19 22  2  0  0  0  0
 19 34  1  0  0  0  0
 20 23  2  0  0  0  0
 20 35  1  0  0  0  0
 21 23  1  0  0  0  0
 22 36  1  0  0  0  0
 23 37  1  0  0  0  0
 24 40  1  0  0  0  0
 24 41  1  0  0  0  0
 24 42  1  0  0  0  0
M  END
> <PUBCHEM_COMPOUND_CID>
76764608

> <PUBCHEM_CONFORMER_RMSD>
1

> <PUBCHEM_CONFORMER_DIVERSEORDER>
1
41
62
24
3
76
47
40
55
38
37
49
25
70
61
81
71
73
59
79
64
58
9
17
42
12
80
16
14
4
29
46
2
82
33
87
43
36
77
35
39
91
20
6
50
86
7
18
60
23
89
34
78
68
26
5
72
19
88
30
48
74
53
67
84
13
56
69
28
52
11
75
31
57
8
54
63
32
65
45
27
66
21
15
10
22
90
51
83
85
44

> <PUBCHEM_MMFF94_PARTIAL_CHARGES>
36
1 -0.43
10 -0.15
11 -0.15
12 -0.15
13 -0.15
14 0.08
15 0.03
16 -0.15
17 0.08
18 0.71
19 -0.18
2 -0.68
20 -0.15
21 0.08
22 -0.14
23 -0.15
24 0.28
28 0.15
29 0.15
3 -0.53
30 0.15
31 0.15
32 0.4
33 0.15
34 0.15
35 0.15
36 0.15
37 0.15
38 0.45
39 0.45
4 -0.36
5 -0.53
6 -0.57
7 0.42
8 -0.14
9 0.28

> <PUBCHEM_EFFECTIVE_ROTOR_COUNT>
7

> <PUBCHEM_PHARMACOPHORE_FEATURES>
8
1 2 acceptor
1 2 donor
1 3 donor
1 4 acceptor
1 5 donor
1 6 acceptor
6 15 16 17 20 21 23 rings
6 8 10 11 12 13 14 rings

> <PUBCHEM_HEAVY_ATOM_COUNT>
24

> <PUBCHEM_ATOM_DEF_STEREO_COUNT>
0

> <PUBCHEM_ATOM_UDEF_STEREO_COUNT>
1

> <PUBCHEM_BOND_DEF_STEREO_COUNT>
1

> <PUBCHEM_BOND_UDEF_STEREO_COUNT>
0

> <PUBCHEM_ISOTOPIC_ATOM_COUNT>
0

> <PUBCHEM_COMPONENT_COUNT>
1

> <PUBCHEM_CACTVS_TAUTO_COUNT>
10

> <PUBCHEM_CONFORMER_ID>
049355C000000001

> <PUBCHEM_MMFF94_ENERGY>
73.482

> <PUBCHEM_FEATURE_SELFOVERLAP>
40.597

> <PUBCHEM_SHAPE_FINGERPRINT>
108634 29 18114470054048114818
10928967 22 18128826411383415455
11135609 12 18261120694446707617
11135609 99 18119523246840181074
11186622 123 18261385620508569978
11796584 16 18261665991752382416
11828532 37 17100316954406370883
12596602 18 16558746870882902682
12633257 1 15841553019691387425
13103583 49 17489319619599254289
13255334 9 18411139117169876494
13402501 40 18409450323002256387
13941219 33 18341623603111898769
14251751 18 18334580161135118516
14950920 106 16773238534367719075
15352361 1 18411699910833385281
15799311 1 18267326286196780936
17627616 140 17895746310142011171
17780758 139 17989212555492839033
21315759 227 18187638167366708263
21403212 168 18270694074229945305
21623969 137 18272653459067609694
221490 88 18411134779179606608
23424784 1240 18341903965381291230
23559900 14 18339912766892644280
3089732 80 18410295830395794810
314194 84 18200870811076152581
338550 245 18409730686141054790
3737641 26 18272660021593229502
4073 2 18410291393889919312
44062 13 18334290968492794357
444735 86 18335125531671976498
484989 97 18413114970579476114
508706 21 18333724737121133255
5104073 3 18272646819106576328
5365585 94 18261115226895369635
54583773 228 18335148614339436262
5486654 36 18340493352392856521
56633871 153 18051700142463336963
6431902 208 18411416254034731694
6433294 58 18196651800582958390
7970288 3 17976822318053056043

> <PUBCHEM_SHAPE_MULTIPOLES>
458.69
15.89
3.92
1.04
9.88
1.38
-0.07
7.42
-0.16
-2.67
-0.18
-1.35
0.26
2.25

> <PUBCHEM_SHAPE_SELFOVERLAP>
972.083

> <PUBCHEM_SHAPE_VOLUME>
255.5

> <PUBCHEM_COORDINATE_TYPE>
2
5
10

$$$$
