42607667
  -OEChem-09182010493D

 54 56  0     1  0  0  0  0  0999 V2000
    2.1349   -0.6517   -0.5126 O   0  0  0  0  0  0  0  0  0  0  0  0
    2.1659    0.8856    1.2607 O   0  0  0  0  0  0  0  0  0  0  0  0
    4.6634   -3.2262    1.5168 O   0  0  0  0  0  0  0  0  0  0  0  0
    4.3171   -3.4892   -1.3394 O   0  0  0  0  0  0  0  0  0  0  0  0
    2.3544   -1.7649    2.0766 O   0  0  0  0  0  0  0  0  0  0  0  0
    1.4315   -0.9556   -3.1422 O   0  0  0  0  0  0  0  0  0  0  0  0
   -0.2844    0.6313    2.2908 O   0  0  0  0  0  0  0  0  0  0  0  0
    2.7204    4.7347   -1.5019 O   0  0  0  0  0  0  0  0  0  0  0  0
   -7.8276   -1.2159   -1.0153 O   0  0  0  0  0  0  0  0  0  0  0  0
    4.2818   -2.1484    0.6663 C   0  0  1  0  0  0  0  0  0  0  0  0
    3.4703   -2.6983   -0.5096 C   0  0  1  0  0  0  0  0  0  0  0  0
    3.4700   -1.1202    1.4540 C   0  0  1  0  0  0  0  0  0  0  0  0
    2.8830   -1.5485   -1.3401 C   0  0  1  0  0  0  0  0  0  0  0  0
    2.9342   -0.0472    0.5068 C   0  0  1  0  0  0  0  0  0  0  0  0
    1.9430   -2.0642   -2.4251 C   0  0  0  0  0  0  0  0  0  0  0  0
    1.6122    1.9287    0.5677 C   0  0  0  0  0  0  0  0  0  0  0  0
    0.2303    2.1184    0.5436 C   0  0  0  0  0  0  0  0  0  0  0  0
    2.4489    2.8081   -0.1195 C   0  0  0  0  0  0  0  0  0  0  0  0
   -0.6611    1.2115    1.2532 C   0  0  0  0  0  0  0  0  0  0  0  0
   -2.0839    0.9626    0.7219 C   0  0  0  0  0  0  0  0  0  0  0  0
   -0.3145    3.1874   -0.1679 C   0  0  0  0  0  0  0  0  0  0  0  0
   -2.6075   -0.4429    1.0259 C   0  0  0  0  0  0  0  0  0  0  0  0
    1.9041    3.8772   -0.8306 C   0  0  0  0  0  0  0  0  0  0  0  0
    0.5223    4.0669   -0.8548 C   0  0  0  0  0  0  0  0  0  0  0  0
   -3.9978   -0.6491    0.4823 C   0  0  0  0  0  0  0  0  0  0  0  0
   -5.1073   -0.3460    1.2715 C   0  0  0  0  0  0  0  0  0  0  0  0
   -4.1753   -1.1433   -0.8101 C   0  0  0  0  0  0  0  0  0  0  0  0
   -6.3943   -0.5363    0.7683 C   0  0  0  0  0  0  0  0  0  0  0  0
   -5.4623   -1.3340   -1.3132 C   0  0  0  0  0  0  0  0  0  0  0  0
   -6.5717   -1.0305   -0.5241 C   0  0  0  0  0  0  0  0  0  0  0  0
    5.2075   -1.6916    0.2948 H   0  0  0  0  0  0  0  0  0  0  0  0
    2.6776   -3.3584   -0.1386 H   0  0  0  0  0  0  0  0  0  0  0  0
    4.0642   -0.6821    2.2626 H   0  0  0  0  0  0  0  0  0  0  0  0
    3.6809   -0.9744   -1.8307 H   0  0  0  0  0  0  0  0  0  0  0  0
    3.7858    0.4669    0.0429 H   0  0  0  0  0  0  0  0  0  0  0  0
    1.0932   -2.5953   -1.9831 H   0  0  0  0  0  0  0  0  0  0  0  0
    2.4612   -2.7279   -3.1238 H   0  0  0  0  0  0  0  0  0  0  0  0
    5.1660   -2.8489    2.2588 H   0  0  0  0  0  0  0  0  0  0  0  0
    5.0240   -2.9157   -1.6814 H   0  0  0  0  0  0  0  0  0  0  0  0
    1.7063   -1.9888    1.3875 H   0  0  0  0  0  0  0  0  0  0  0  0
    0.8313   -1.3058   -3.8223 H   0  0  0  0  0  0  0  0  0  0  0  0
    3.5277    2.6795   -0.0897 H   0  0  0  0  0  0  0  0  0  0  0  0
   -2.7395    1.7201    1.1681 H   0  0  0  0  0  0  0  0  0  0  0  0
   -2.0882    1.1077   -0.3651 H   0  0  0  0  0  0  0  0  0  0  0  0
   -1.3846    3.3728   -0.1924 H   0  0  0  0  0  0  0  0  0  0  0  0
   -1.9271   -1.1954    0.6064 H   0  0  0  0  0  0  0  0  0  0  0  0
   -2.6077   -0.6229    2.1087 H   0  0  0  0  0  0  0  0  0  0  0  0
    0.0925    4.9000   -1.4043 H   0  0  0  0  0  0  0  0  0  0  0  0
   -4.9817    0.0412    2.2791 H   0  0  0  0  0  0  0  0  0  0  0  0
   -3.3185   -1.3815   -1.4349 H   0  0  0  0  0  0  0  0  0  0  0  0
    3.6434    4.4537   -1.3791 H   0  0  0  0  0  0  0  0  0  0  0  0
   -7.2546   -0.2975    1.3876 H   0  0  0  0  0  0  0  0  0  0  0  0
   -5.5871   -1.7191   -2.3217 H   0  0  0  0  0  0  0  0  0  0  0  0
   -7.7632   -1.5627   -1.9218 H   0  0  0  0  0  0  0  0  0  0  0  0
  1 13  1  0  0  0  0
  1 14  1  0  0  0  0
  2 14  1  0  0  0  0
  2 16  1  0  0  0  0
  3 10  1  0  0  0  0
  3 38  1  0  0  0  0
  4 11  1  0  0  0  0
  4 39  1  0  0  0  0
  5 12  1  0  0  0  0
  5 40  1  0  0  0  0
  6 15  1  0  0  0  0
  6 41  1  0  0  0  0
  7 19  2  0  0  0  0
  8 23  1  0  0  0  0
  8 51  1  0  0  0  0
  9 30  1  0  0  0  0
  9 54  1  0  0  0  0
 10 11  1  0  0  0  0
 10 12  1  0  0  0  0
 10 31  1  0  0  0  0
 11 13  1  0  0  0  0
 11 32  1  0  0  0  0
 12 14  1  0  0  0  0
 12 33  1  0  0  0  0
 13 15  1  0  0  0  0
 13 34  1  0  0  0  0
 14 35  1  0  0  0  0
 15 36  1  0  0  0  0
 15 37  1  0  0  0  0
 16 17  2  0  0  0  0
 16 18  1  0  0  0  0
 17 19  1  0  0  0  0
 17 21  1  0  0  0  0
 18 23  2  0  0  0  0
 18 42  1  0  0  0  0
 19 20  1  0  0  0  0
 20 22  1  0  0  0  0
 20 43  1  0  0  0  0
 20 44  1  0  0  0  0
 21 24  2  0  0  0  0
 21 45  1  0  0  0  0
 22 25  1  0  0  0  0
 22 46  1  0  0  0  0
 22 47  1  0  0  0  0
 23 24  1  0  0  0  0
 24 48  1  0  0  0  0
 25 26  2  0  0  0  0
 25 27  1  0  0  0  0
 26 28  1  0  0  0  0
 26 49  1  0  0  0  0
 27 29  2  0  0  0  0
 27 50  1  0  0  0  0
 28 30  2  0  0  0  0
 28 52  1  0  0  0  0
 29 30  1  0  0  0  0
 29 53  1  0  0  0  0
M  END
> <PUBCHEM_COMPOUND_CID>
42607667

> <PUBCHEM_CONFORMER_RMSD>
1.4

> <PUBCHEM_CONFORMER_DIVERSEORDER>
1
127
126
67
134
123
62
11
33
110
8
119
32
91
145
7
142
44
108
20
29
60
100
135
81
89
86
72
69
25
92
13
4
28
41
125
45
132
9
102
153
84
55
54
5
152
53
14
50
115
156
157
114
65
101
22
149
96
147
48
138
46
136
109
143
77
144
122
117
17
19
133
43
159
90
23
34
94
154
121
39
155
47
26
2
36
73
68
137
124
64
140
75
97
148
12
40
116
106
49
35
15
88
3
31
150
63
6
93
38
129
120
141
30
51
78
131
58
24
87
79
37
56
57
83
18
59
104
21
113
61
85
27
66
107
128
71
76
130
70
139
151
146
16
112
10
99
111
42
105
103
82
118
80
74
158
95
98
52

> <PUBCHEM_MMFF94_PARTIAL_CHARGES>
43
1 -0.56
10 0.28
11 0.28
12 0.28
13 0.28
14 0.56
15 0.28
16 0.08
17 0.09
18 -0.15
19 0.42
2 -0.36
20 0.06
21 -0.15
22 0.14
23 0.08
24 -0.15
25 -0.14
26 -0.15
27 -0.15
28 -0.15
29 -0.15
3 -0.68
30 0.08
38 0.4
39 0.4
4 -0.68
40 0.4
41 0.4
42 0.15
45 0.15
48 0.15
49 0.15
5 -0.68
50 0.15
51 0.45
52 0.15
53 0.15
54 0.45
6 -0.68
7 -0.57
8 -0.53
9 -0.53

> <PUBCHEM_EFFECTIVE_ROTOR_COUNT>
8.2

> <PUBCHEM_PHARMACOPHORE_FEATURES>
16
1 1 acceptor
1 2 acceptor
1 3 acceptor
1 3 donor
1 4 acceptor
1 4 donor
1 5 acceptor
1 5 donor
1 6 acceptor
1 6 donor
1 7 acceptor
1 8 donor
1 9 donor
6 1 10 11 12 13 14 rings
6 16 17 18 21 23 24 rings
6 25 26 27 28 29 30 rings

> <PUBCHEM_HEAVY_ATOM_COUNT>
30

> <PUBCHEM_ATOM_DEF_STEREO_COUNT>
0

> <PUBCHEM_ATOM_UDEF_STEREO_COUNT>
5

> <PUBCHEM_BOND_DEF_STEREO_COUNT>
0

> <PUBCHEM_BOND_UDEF_STEREO_COUNT>
0

> <PUBCHEM_ISOTOPIC_ATOM_COUNT>
0

> <PUBCHEM_COMPONENT_COUNT>
1

> <PUBCHEM_CACTVS_TAUTO_COUNT>
18

> <PUBCHEM_CONFORMER_ID>
028A243300000001

> <PUBCHEM_MMFF94_ENERGY>
92.6894

> <PUBCHEM_FEATURE_SELFOVERLAP>
81.278

> <PUBCHEM_SHAPE_FINGERPRINT>
10721379 63 18337688501850477909
12107183 9 18269001891148336793
12166972 35 17895198757514177551
12293681 25 17697028137547426204
12422481 6 17560232523227365791
13150687 139 17911538785157982076
13383668 262 17838054068087436119
13757389 114 17762633788711856296
14114206 34 17534369767589492376
14863182 85 17346885567374374814
15484559 13 18121223348707554756
17818456 19 17845109380720416601
1813 80 18412829053704287275
1979834 28 16702304537976329631
21133410 58 18336251410943116335
3004659 81 18131074852901595287
376196 1 17319574982878897121
4017518 198 18053114097637643188
44802255 64 16741460582789453132
46194498 28 18188482584134089357
474144 1 17987795366571896447
504843 32 17252037519992451764
57035037 87 15791727543063483148
57527293 21 18052551967652943834

> <PUBCHEM_SHAPE_MULTIPOLES>
564.56
13.36
5.05
2.1
30.12
4.91
0.65
-12.42
1.15
-8.67
2.19
-1.21
-1.01
-1.42

> <PUBCHEM_SHAPE_SELFOVERLAP>
1203.855

> <PUBCHEM_SHAPE_VOLUME>
309.7

> <PUBCHEM_COORDINATE_TYPE>
2
5
10

$$$$
