518689
  -OEChem-09182014333D

 29 28  0     0  0  0  0  0  0999 V2000
   -3.2611   -1.9557    0.3395 O   0  0  0  0  0  0  0  0  0  0  0  0
   -0.1697    1.9296    0.6720 C   0  0  0  0  0  0  0  0  0  0  0  0
    1.0000    1.1231    1.2528 C   0  0  0  0  0  0  0  0  0  0  0  0
   -1.0855    1.1265   -0.2342 C   0  0  0  0  0  0  0  0  0  0  0  0
   -1.7283   -0.0929    0.4026 C   0  0  0  0  0  0  0  0  0  0  0  0
    1.9468    0.6349    0.1908 C   0  0  0  0  0  0  0  0  0  0  0  0
   -2.7339   -0.8849   -0.4321 C   0  0  0  0  0  0  0  0  0  0  0  0
    2.2927   -0.6347   -0.0953 C   0  0  0  0  0  0  0  0  0  0  0  0
   -1.3016    1.5367   -1.4953 C   0  0  0  0  0  0  0  0  0  0  0  0
    3.2728   -0.9245   -1.2013 C   0  0  0  0  0  0  0  0  0  0  0  0
    1.7678   -1.8583    0.6002 C   0  0  0  0  0  0  0  0  0  0  0  0
    0.2263    2.8084    0.1459 H   0  0  0  0  0  0  0  0  0  0  0  0
   -0.7694    2.3234    1.5029 H   0  0  0  0  0  0  0  0  0  0  0  0
    1.5698    1.7847    1.9182 H   0  0  0  0  0  0  0  0  0  0  0  0
    0.6281    0.3214    1.8949 H   0  0  0  0  0  0  0  0  0  0  0  0
   -0.9501   -0.7945    0.7187 H   0  0  0  0  0  0  0  0  0  0  0  0
   -2.2301    0.2236    1.3269 H   0  0  0  0  0  0  0  0  0  0  0  0
    2.4062    1.4314   -0.3939 H   0  0  0  0  0  0  0  0  0  0  0  0
   -3.5690   -0.2492   -0.7444 H   0  0  0  0  0  0  0  0  0  0  0  0
   -2.2552   -1.3082   -1.3213 H   0  0  0  0  0  0  0  0  0  0  0  0
   -1.9566    1.0012   -2.1725 H   0  0  0  0  0  0  0  0  0  0  0  0
   -0.8208    2.4267   -1.8885 H   0  0  0  0  0  0  0  0  0  0  0  0
    3.6238   -0.0139   -1.6983 H   0  0  0  0  0  0  0  0  0  0  0  0
    2.8073   -1.5590   -1.9626 H   0  0  0  0  0  0  0  0  0  0  0  0
    4.1505   -1.4446   -0.8037 H   0  0  0  0  0  0  0  0  0  0  0  0
    2.6015   -2.4835    0.9381 H   0  0  0  0  0  0  0  0  0  0  0  0
    1.1634   -1.6403    1.4821 H   0  0  0  0  0  0  0  0  0  0  0  0
    1.1552   -2.4482   -0.0895 H   0  0  0  0  0  0  0  0  0  0  0  0
   -3.8924   -2.4315   -0.2266 H   0  0  0  0  0  0  0  0  0  0  0  0
  1  7  1  0  0  0  0
  1 29  1  0  0  0  0
  2  3  1  0  0  0  0
  2  4  1  0  0  0  0
  2 12  1  0  0  0  0
  2 13  1  0  0  0  0
  3  6  1  0  0  0  0
  3 14  1  0  0  0  0
  3 15  1  0  0  0  0
  4  5  1  0  0  0  0
  4  9  2  0  0  0  0
  5  7  1  0  0  0  0
  5 16  1  0  0  0  0
  5 17  1  0  0  0  0
  6  8  2  0  0  0  0
  6 18  1  0  0  0  0
  7 19  1  0  0  0  0
  7 20  1  0  0  0  0
  8 10  1  0  0  0  0
  8 11  1  0  0  0  0
  9 21  1  0  0  0  0
  9 22  1  0  0  0  0
 10 23  1  0  0  0  0
 10 24  1  0  0  0  0
 10 25  1  0  0  0  0
 11 26  1  0  0  0  0
 11 27  1  0  0  0  0
 11 28  1  0  0  0  0
M  END
> <PUBCHEM_COMPOUND_CID>
518689

> <PUBCHEM_CONFORMER_RMSD>
0.6

> <PUBCHEM_CONFORMER_DIVERSEORDER>
1
90
54
91
206
46
160
42
210
26
134
66
142
74
191
29
89
81
141
106
185
220
50
201
11
180
61
170
8
117
104
149
72
127
15
207
40
162
53
119
122
14
240
6
188
43
52
51
198
227
30
139
208
243
21
152
197
115
3
229
155
48
9
159
200
195
41
16
123
2
163
196
85
45
150
13
35
112
179
183
221
10
148
76
228
233
88
95
109
79
217
60
5
189
118
222
107
20
146
147
154
238
137
108
230
97
96
181
144
237
242
205
135
151
4
132
193
59
168
213
84
184
77
78
7
145
126
156
190
199
128
182
94
158
165
157
192
69
203
161
236
125
24
219
176
226
164
71
133
38
98
130
169
244
63
75
105
167
120
62
103
218
99
102
239
121
49
18
57
136
34
177
27
110
211
113
55
70
86
194
212
73
28
235
31
32
172
178
33
215
216
114
12
36
209
58
82
68
25
92
171
44
100
83
138
39
232
124
166
129
93
101
22
214
47
174
64
140
65
143
225
223
87
17
204
80
234
23
19
241
56
202
231
131
67
37
187
116
173
175
224
153
186
111

> <PUBCHEM_MMFF94_PARTIAL_CHARGES>
15
1 -0.68
10 0.14
11 0.14
18 0.15
2 0.14
21 0.15
22 0.15
29 0.4
3 0.14
4 -0.28
5 0.14
6 -0.29
7 0.28
8 -0.28
9 -0.3

> <PUBCHEM_EFFECTIVE_ROTOR_COUNT>
5

> <PUBCHEM_PHARMACOPHORE_FEATURES>
5
1 1 acceptor
1 1 donor
1 9 hydrophobe
3 8 10 11 hydrophobe
5 2 3 4 5 6 hydrophobe

> <PUBCHEM_HEAVY_ATOM_COUNT>
11

> <PUBCHEM_ATOM_DEF_STEREO_COUNT>
0

> <PUBCHEM_ATOM_UDEF_STEREO_COUNT>
0

> <PUBCHEM_BOND_DEF_STEREO_COUNT>
0

> <PUBCHEM_BOND_UDEF_STEREO_COUNT>
0

> <PUBCHEM_ISOTOPIC_ATOM_COUNT>
0

> <PUBCHEM_COMPONENT_COUNT>
1

> <PUBCHEM_CACTVS_TAUTO_COUNT>
1

> <PUBCHEM_CONFORMER_ID>
0007EA2100000001

> <PUBCHEM_MMFF94_ENERGY>
8.5901

> <PUBCHEM_FEATURE_SELFOVERLAP>
25.401

> <PUBCHEM_SHAPE_FINGERPRINT>
11127187 94 18266742380886601356
12897270 3 17967819344570601044
15276787 5 12895081673730385086
15310529 11 17170412705649754736
19766037 51 18340496628745859055
20201158 50 18410001156826185107
20645476 183 17691706488595409388
20645477 70 18128243687822530215
20711978 78 17774428511893056489
20711983 138 17487619628361572610
20711985 344 17968084292740282757
23552423 10 18407760330638266176
2748010 2 18270945904102675008
58734985 102 17677617651423656597
81228 2 17127039106744085624
94968 8 18339364196373295423

> <PUBCHEM_SHAPE_MULTIPOLES>
220.51
4.8
2.2
1.22
0.29
0.29
0.26
3.2
1.08
-0.89
-0.3
0.22
-0.33
0.62

> <PUBCHEM_SHAPE_SELFOVERLAP>
405.418

> <PUBCHEM_SHAPE_VOLUME>
140.4

> <PUBCHEM_COORDINATE_TYPE>
2
5
10

$$$$
