601765
  -OEChem-09182010153D

 32 32  0     0  0  0  0  0  0999 V2000
   -2.7202   -0.0001    0.4623 O   0  0  0  0  0  0  0  0  0  0  0  0
    2.7203    0.0000   -0.4622 O   0  0  0  0  0  0  0  0  0  0  0  0
   -0.6876   -1.2080    0.1167 C   0  0  0  0  0  0  0  0  0  0  0  0
    0.6876   -1.2079   -0.1170 C   0  0  0  0  0  0  0  0  0  0  0  0
   -0.6876    1.2079    0.1168 C   0  0  0  0  0  0  0  0  0  0  0  0
    0.6875    1.2080   -0.1169 C   0  0  0  0  0  0  0  0  0  0  0  0
   -1.3752    0.0000    0.2337 C   0  0  0  0  0  0  0  0  0  0  0  0
    1.3752    0.0000   -0.2337 C   0  0  0  0  0  0  0  0  0  0  0  0
   -1.4301   -2.5003    0.2432 C   0  0  0  0  0  0  0  0  0  0  0  0
    1.4302   -2.5002   -0.2431 C   0  0  0  0  0  0  0  0  0  0  0  0
   -1.4301    2.5003    0.2431 C   0  0  0  0  0  0  0  0  0  0  0  0
    1.4301    2.5003   -0.2431 C   0  0  0  0  0  0  0  0  0  0  0  0
   -3.5701    0.0000   -0.6820 C   0  0  0  0  0  0  0  0  0  0  0  0
    3.5699    0.0000    0.6822 C   0  0  0  0  0  0  0  0  0  0  0  0
   -1.6015   -2.9353   -0.7468 H   0  0  0  0  0  0  0  0  0  0  0  0
   -0.8785   -3.2171    0.8608 H   0  0  0  0  0  0  0  0  0  0  0  0
   -2.4018   -2.3831    0.7334 H   0  0  0  0  0  0  0  0  0  0  0  0
    2.4018   -2.3830   -0.7337 H   0  0  0  0  0  0  0  0  0  0  0  0
    1.6020   -2.9348    0.7469 H   0  0  0  0  0  0  0  0  0  0  0  0
    0.8786   -3.2175   -0.8602 H   0  0  0  0  0  0  0  0  0  0  0  0
   -0.8786    3.2172    0.8607 H   0  0  0  0  0  0  0  0  0  0  0  0
   -1.6016    2.9352   -0.7468 H   0  0  0  0  0  0  0  0  0  0  0  0
   -2.4018    2.3831    0.7333 H   0  0  0  0  0  0  0  0  0  0  0  0
    1.6018    2.9350    0.7469 H   0  0  0  0  0  0  0  0  0  0  0  0
    2.4017    2.3831   -0.7335 H   0  0  0  0  0  0  0  0  0  0  0  0
    0.8785    3.2173   -0.8605 H   0  0  0  0  0  0  0  0  0  0  0  0
   -3.4054    0.8957   -1.2889 H   0  0  0  0  0  0  0  0  0  0  0  0
   -4.6076    0.0000   -0.3367 H   0  0  0  0  0  0  0  0  0  0  0  0
   -3.4055   -0.8956   -1.2890 H   0  0  0  0  0  0  0  0  0  0  0  0
    3.4053   -0.8956    1.2892 H   0  0  0  0  0  0  0  0  0  0  0  0
    3.4053    0.8956    1.2892 H   0  0  0  0  0  0  0  0  0  0  0  0
    4.6075    0.0000    0.3370 H   0  0  0  0  0  0  0  0  0  0  0  0
  1  7  1  0  0  0  0
  1 13  1  0  0  0  0
  2  8  1  0  0  0  0
  2 14  1  0  0  0  0
  3  4  2  0  0  0  0
  3  7  1  0  0  0  0
  3  9  1  0  0  0  0
  4  8  1  0  0  0  0
  4 10  1  0  0  0  0
  5  6  1  0  0  0  0
  5  7  2  0  0  0  0
  5 11  1  0  0  0  0
  6  8  2  0  0  0  0
  6 12  1  0  0  0  0
  9 15  1  0  0  0  0
  9 16  1  0  0  0  0
  9 17  1  0  0  0  0
 10 18  1  0  0  0  0
 10 19  1  0  0  0  0
 10 20  1  0  0  0  0
 11 21  1  0  0  0  0
 11 22  1  0  0  0  0
 11 23  1  0  0  0  0
 12 24  1  0  0  0  0
 12 25  1  0  0  0  0
 12 26  1  0  0  0  0
 13 27  1  0  0  0  0
 13 28  1  0  0  0  0
 13 29  1  0  0  0  0
 14 30  1  0  0  0  0
 14 31  1  0  0  0  0
 14 32  1  0  0  0  0
M  END
> <PUBCHEM_COMPOUND_CID>
601765

> <PUBCHEM_CONFORMER_RMSD>
0.6

> <PUBCHEM_CONFORMER_DIVERSEORDER>
1

> <PUBCHEM_MMFF94_PARTIAL_CHARGES>
14
1 -0.36
10 0.14
11 0.14
12 0.14
13 0.28
14 0.28
2 -0.36
3 -0.14
4 -0.14
5 -0.14
6 -0.14
7 0.08
8 0.08
9 0.14

> <PUBCHEM_EFFECTIVE_ROTOR_COUNT>
2

> <PUBCHEM_PHARMACOPHORE_FEATURES>
3
1 1 acceptor
1 2 acceptor
6 3 4 5 6 7 8 rings

> <PUBCHEM_HEAVY_ATOM_COUNT>
14

> <PUBCHEM_ATOM_DEF_STEREO_COUNT>
0

> <PUBCHEM_ATOM_UDEF_STEREO_COUNT>
0

> <PUBCHEM_BOND_DEF_STEREO_COUNT>
0

> <PUBCHEM_BOND_UDEF_STEREO_COUNT>
0

> <PUBCHEM_ISOTOPIC_ATOM_COUNT>
0

> <PUBCHEM_COMPONENT_COUNT>
1

> <PUBCHEM_CACTVS_TAUTO_COUNT>
1

> <PUBCHEM_CONFORMER_ID>
00092EA500000001

> <PUBCHEM_MMFF94_ENERGY>
64.6844

> <PUBCHEM_FEATURE_SELFOVERLAP>
15.223

> <PUBCHEM_SHAPE_FINGERPRINT>
10967382 1 18410858771553228269
11132069 177 18410849988793540010
11206711 2 18337399240240108077
12423570 1 13727677477786688659
13140716 1 18266745868399967825
13380535 76 18410852165888797922
14911166 2 18410014346628371439
16945 1 18410866459539406854
193761 8 18410865355732811781
20201158 50 18409165510999045151
20510252 161 18272368625199964912
20511035 2 18120659294799007028
20588541 1 18410577283697078871
20645476 183 17605853622932656854
21501502 16 18123753045647007810
2334 1 17978795940722507783
23388829 49 18340760481466355861
23402539 116 18341315726274737694
23419403 2 15666954730691711425
23463225 33 18264208191442218424
23526114 1 18122345954104708605
23552423 10 17900545884528464348
23559900 14 18270130119048454628
241688 4 17905895777201419048
2748010 2 18050856803235835789
528886 8 18411978104460538570
53812653 166 18271241599811197992

> <PUBCHEM_SHAPE_MULTIPOLES>
276.37
4.32
2.9
0.72
0
0
0
0
0
0
0
0
0
0

> <PUBCHEM_SHAPE_SELFOVERLAP>
570.075

> <PUBCHEM_SHAPE_VOLUME>
163.3

> <PUBCHEM_COORDINATE_TYPE>
2
5
10

$$$$
