5383438
  -OEChem-09182010383D

 41 43  0     0  0  0  0  0  0999 V2000
   -0.8170    0.9778    0.0704 O   0  0  0  0  0  0  0  0  0  0  0  0
    0.1360   -2.5387    0.6308 O   0  0  0  0  0  0  0  0  0  0  0  0
    4.2973    0.1962   -1.8102 O   0  0  0  0  0  0  0  0  0  0  0  0
   -4.9650   -1.5284    0.0383 O   0  0  0  0  0  0  0  0  0  0  0  0
   -2.6328   -2.6557    0.3943 O   0  0  0  0  0  0  0  0  0  0  0  0
    5.4495    0.7588    0.6558 O   0  0  0  0  0  0  0  0  0  0  0  0
   -4.9720    3.1798   -0.5764 O   0  0  0  0  0  0  0  0  0  0  0  0
   -0.0844   -0.1811    0.2735 C   0  0  0  0  0  0  0  0  0  0  0  0
   -2.8606   -0.3318    0.0635 C   0  0  0  0  0  0  0  0  0  0  0  0
   -2.1803    0.8798   -0.0358 C   0  0  0  0  0  0  0  0  0  0  0  0
    1.3654    0.0649    0.3699 C   0  0  0  0  0  0  0  0  0  0  0  0
   -0.6189   -1.4098    0.3961 C   0  0  0  0  0  0  0  0  0  0  0  0
   -2.0900   -1.5636    0.2927 C   0  0  0  0  0  0  0  0  0  0  0  0
   -4.2525   -0.3710   -0.0516 C   0  0  0  0  0  0  0  0  0  0  0  0
    2.1598    0.0150   -0.7760 C   0  0  0  0  0  0  0  0  0  0  0  0
   -2.8886    2.0623   -0.2506 C   0  0  0  0  0  0  0  0  0  0  0  0
    1.9446    0.3469    1.6075 C   0  0  0  0  0  0  0  0  0  0  0  0
    3.5323    0.2469   -0.6842 C   0  0  0  0  0  0  0  0  0  0  0  0
   -4.2783    2.0274   -0.3664 C   0  0  0  0  0  0  0  0  0  0  0  0
   -4.9587    0.8130   -0.2671 C   0  0  0  0  0  0  0  0  0  0  0  0
    4.1107    0.5290    0.5535 C   0  0  0  0  0  0  0  0  0  0  0  0
    3.3167    0.5788    1.6993 C   0  0  0  0  0  0  0  0  0  0  0  0
    0.5395   -3.1365   -0.5863 C   0  0  0  0  0  0  0  0  0  0  0  0
    4.8590   -1.0684   -2.1557 C   0  0  0  0  0  0  0  0  0  0  0  0
    5.8881    2.1085    0.5145 C   0  0  0  0  0  0  0  0  0  0  0  0
    1.7161   -0.1927   -1.7473 H   0  0  0  0  0  0  0  0  0  0  0  0
   -2.3608    3.0095   -0.3281 H   0  0  0  0  0  0  0  0  0  0  0  0
    1.3386    0.3894    2.5093 H   0  0  0  0  0  0  0  0  0  0  0  0
   -6.0421    0.7841   -0.3569 H   0  0  0  0  0  0  0  0  0  0  0  0
    3.7607    0.7974    2.6667 H   0  0  0  0  0  0  0  0  0  0  0  0
   -4.3730   -2.2823    0.1825 H   0  0  0  0  0  0  0  0  0  0  0  0
    1.1881   -2.4888   -1.1795 H   0  0  0  0  0  0  0  0  0  0  0  0
   -0.3268   -3.4403   -1.1847 H   0  0  0  0  0  0  0  0  0  0  0  0
    1.1078   -4.0401   -0.3448 H   0  0  0  0  0  0  0  0  0  0  0  0
   -5.9205    2.9716   -0.6314 H   0  0  0  0  0  0  0  0  0  0  0  0
    4.0676   -1.8024   -2.3381 H   0  0  0  0  0  0  0  0  0  0  0  0
    5.5254   -1.4233   -1.3633 H   0  0  0  0  0  0  0  0  0  0  0  0
    5.4408   -0.9457   -3.0733 H   0  0  0  0  0  0  0  0  0  0  0  0
    5.4548    2.7366    1.2993 H   0  0  0  0  0  0  0  0  0  0  0  0
    5.6193    2.5000   -0.4717 H   0  0  0  0  0  0  0  0  0  0  0  0
    6.9769    2.1270    0.6130 H   0  0  0  0  0  0  0  0  0  0  0  0
  1  8  1  0  0  0  0
  1 10  1  0  0  0  0
  2 12  1  0  0  0  0
  2 23  1  0  0  0  0
  3 18  1  0  0  0  0
  3 24  1  0  0  0  0
  4 14  1  0  0  0  0
  4 31  1  0  0  0  0
  5 13  2  0  0  0  0
  6 21  1  0  0  0  0
  6 25  1  0  0  0  0
  7 19  1  0  0  0  0
  7 35  1  0  0  0  0
  8 11  1  0  0  0  0
  8 12  2  0  0  0  0
  9 10  1  0  0  0  0
  9 13  1  0  0  0  0
  9 14  2  0  0  0  0
 10 16  2  0  0  0  0
 11 15  2  0  0  0  0
 11 17  1  0  0  0  0
 12 13  1  0  0  0  0
 14 20  1  0  0  0  0
 15 18  1  0  0  0  0
 15 26  1  0  0  0  0
 16 19  1  0  0  0  0
 16 27  1  0  0  0  0
 17 22  2  0  0  0  0
 17 28  1  0  0  0  0
 18 21  2  0  0  0  0
 19 20  2  0  0  0  0
 20 29  1  0  0  0  0
 21 22  1  0  0  0  0
 22 30  1  0  0  0  0
 23 32  1  0  0  0  0
 23 33  1  0  0  0  0
 23 34  1  0  0  0  0
 24 36  1  0  0  0  0
 24 37  1  0  0  0  0
 24 38  1  0  0  0  0
 25 39  1  0  0  0  0
 25 40  1  0  0  0  0
 25 41  1  0  0  0  0
M  END
> <PUBCHEM_COMPOUND_CID>
5383438

> <PUBCHEM_CONFORMER_RMSD>
0.8

> <PUBCHEM_CONFORMER_DIVERSEORDER>
1
5
7
2
6
8
4
3

> <PUBCHEM_MMFF94_PARTIAL_CHARGES>
32
1 -0.16
10 0.08
11 0.03
12 0.09
13 0.47
14 0.08
15 -0.15
16 -0.15
17 -0.15
18 0.08
19 0.08
2 -0.36
20 -0.15
21 0.08
22 -0.15
23 0.28
24 0.28
25 0.28
26 0.15
27 0.15
28 0.15
29 0.15
3 -0.36
30 0.15
31 0.45
35 0.45
4 -0.53
5 -0.57
6 -0.36
7 -0.53
8 0.05
9 0.09

> <PUBCHEM_EFFECTIVE_ROTOR_COUNT>
4

> <PUBCHEM_PHARMACOPHORE_FEATURES>
10
1 1 acceptor
1 2 acceptor
1 3 acceptor
1 4 donor
1 5 acceptor
1 6 acceptor
1 7 donor
6 1 8 9 10 12 13 rings
6 11 15 17 18 21 22 rings
6 9 10 14 16 19 20 rings

> <PUBCHEM_HEAVY_ATOM_COUNT>
25

> <PUBCHEM_ATOM_DEF_STEREO_COUNT>
0

> <PUBCHEM_ATOM_UDEF_STEREO_COUNT>
0

> <PUBCHEM_BOND_DEF_STEREO_COUNT>
0

> <PUBCHEM_BOND_UDEF_STEREO_COUNT>
0

> <PUBCHEM_ISOTOPIC_ATOM_COUNT>
0

> <PUBCHEM_COMPONENT_COUNT>
1

> <PUBCHEM_CACTVS_TAUTO_COUNT>
12

> <PUBCHEM_CONFORMER_ID>
0052250E00000001

> <PUBCHEM_MMFF94_ENERGY>
103.8841

> <PUBCHEM_FEATURE_SELFOVERLAP>
50.785

> <PUBCHEM_SHAPE_FINGERPRINT>
10411042 1 17759802942056138579
10498660 4 18410292471626088593
10670039 82 18187652362175424444
12107183 9 17827620479553019490
12236239 1 17530958107768361400
12390115 104 18341058398448619225
12403259 415 18342464724489246188
12616971 3 16225763034581164788
12633257 1 14923943466344257456
12788726 201 17244442007578551954
12916748 109 18335706073916216066
13140716 1 18047192131845797475
13540713 4 18264216803648569747
13544592 145 18201446874118415222
13911987 19 16916231125720374144
14341114 328 16443355264246475625
14386348 63 17917715742354557600
14739800 52 17972597960198925764
15196674 1 18337104579850786091
1601671 61 18187364298708526652
16752209 62 18335700589127311339
17980427 23 17894630366116390717
18186145 218 18059860553668813626
200 152 15410899560719214778
20645477 70 17060349504829830510
21033648 29 18130492128576281336
21033650 10 18188789266210686424
21065201 7 18412544335832466034
21279426 13 18270967830259010902
22122407 14 15646768981722765605
22393880 68 18201438038996375143
23366157 5 17752199483757282451
23402539 116 18340196483767670268
23557571 272 18342174513802692104
23559900 14 18272376356610089084
2916195 48 18342167908248576872
3298306 158 18272934877804207062
34797466 226 18272656778634653156
38570 142 16444219507046911614
469060 322 18263944244970985033
495365 180 17846490405810556022
5104073 3 18261394378320809643
5265222 85 18267591398397704622
5283173 99 18413672418010066808
56616090 163 18337400318514003039
59682541 52 17130984248653055085
633830 44 18201147776363491924
7808743 9 18335695057188465137
9981440 41 18259987067788503819

> <PUBCHEM_SHAPE_MULTIPOLES>
473.4
12.39
2.78
1.29
3.99
0.79
0.26
-6.86
2.2
-2.4
0.21
2.13
0.1
1.88

> <PUBCHEM_SHAPE_SELFOVERLAP>
1039.971

> <PUBCHEM_SHAPE_VOLUME>
255.6

> <PUBCHEM_COORDINATE_TYPE>
2
5
10

$$$$
