585005
  -OEChem-09182009473D

 39 40  0     1  0  0  0  0  0999 V2000
   -1.7251   -0.3827    0.8028 C   0  0  1  0  0  0  0  0  0  0  0  0
   -0.3660   -0.9284    1.2439 C   0  0  0  0  0  0  0  0  0  0  0  0
   -1.8319    1.1100    1.1058 C   0  0  0  0  0  0  0  0  0  0  0  0
    0.8322   -0.5420    0.4349 C   0  0  0  0  0  0  0  0  0  0  0  0
   -2.0826   -0.7489   -0.6377 C   0  0  0  0  0  0  0  0  0  0  0  0
    1.1630    0.8240    0.0383 C   0  0  0  0  0  0  0  0  0  0  0  0
   -1.0997    2.0547    0.1637 C   0  0  0  0  0  0  0  0  0  0  0  0
    2.6188    0.7801   -0.3880 C   0  0  0  0  0  0  0  0  0  0  0  0
    0.3941    1.9309   -0.0575 C   0  0  0  0  0  0  0  0  0  0  0  0
    1.8036   -1.3920    0.0490 C   0  0  0  0  0  0  0  0  0  0  0  0
    2.9180   -0.6872   -0.6544 C   0  0  0  0  0  0  0  0  0  0  0  0
   -2.0993   -2.2640   -0.8127 C   0  0  0  0  0  0  0  0  0  0  0  0
   -3.4299   -0.1451   -1.0213 C   0  0  0  0  0  0  0  0  0  0  0  0
    0.9823    3.2578   -0.5055 C   0  0  0  0  0  0  0  0  0  0  0  0
    1.9226   -2.8672    0.2387 C   0  0  0  0  0  0  0  0  0  0  0  0
   -2.4639   -0.8651    1.4613 H   0  0  0  0  0  0  0  0  0  0  0  0
   -0.4499   -2.0158    1.3320 H   0  0  0  0  0  0  0  0  0  0  0  0
   -0.1775   -0.5968    2.2754 H   0  0  0  0  0  0  0  0  0  0  0  0
   -1.4768    1.2951    2.1290 H   0  0  0  0  0  0  0  0  0  0  0  0
   -2.8904    1.4011    1.1275 H   0  0  0  0  0  0  0  0  0  0  0  0
   -1.3384   -0.3489   -1.3366 H   0  0  0  0  0  0  0  0  0  0  0  0
   -1.2955    3.0597    0.5643 H   0  0  0  0  0  0  0  0  0  0  0  0
   -1.5717    2.0523   -0.8252 H   0  0  0  0  0  0  0  0  0  0  0  0
    2.8241    1.3616   -1.2926 H   0  0  0  0  0  0  0  0  0  0  0  0
    3.2543    1.1571    0.4231 H   0  0  0  0  0  0  0  0  0  0  0  0
    3.9000   -0.9608   -0.2551 H   0  0  0  0  0  0  0  0  0  0  0  0
    2.8987   -0.9142   -1.7263 H   0  0  0  0  0  0  0  0  0  0  0  0
   -2.7608   -2.7459   -0.0846 H   0  0  0  0  0  0  0  0  0  0  0  0
   -2.4590   -2.5315   -1.8128 H   0  0  0  0  0  0  0  0  0  0  0  0
   -1.1020   -2.7010   -0.7143 H   0  0  0  0  0  0  0  0  0  0  0  0
   -4.2158   -0.4539   -0.3228 H   0  0  0  0  0  0  0  0  0  0  0  0
   -3.7290   -0.4867   -2.0190 H   0  0  0  0  0  0  0  0  0  0  0  0
   -3.4222    0.9460   -1.0612 H   0  0  0  0  0  0  0  0  0  0  0  0
    0.5827    3.5321   -1.4875 H   0  0  0  0  0  0  0  0  0  0  0  0
    2.0727    3.2633   -0.5712 H   0  0  0  0  0  0  0  0  0  0  0  0
    0.7199    4.0472    0.2079 H   0  0  0  0  0  0  0  0  0  0  0  0
    1.0822   -3.3068    0.7787 H   0  0  0  0  0  0  0  0  0  0  0  0
    2.8314   -3.1015    0.8027 H   0  0  0  0  0  0  0  0  0  0  0  0
    1.9851   -3.3655   -0.7342 H   0  0  0  0  0  0  0  0  0  0  0  0
  1  2  1  0  0  0  0
  1  3  1  0  0  0  0
  1  5  1  0  0  0  0
  1 16  1  0  0  0  0
  2  4  1  0  0  0  0
  2 17  1  0  0  0  0
  2 18  1  0  0  0  0
  3  7  1  0  0  0  0
  3 19  1  0  0  0  0
  3 20  1  0  0  0  0
  4  6  1  0  0  0  0
  4 10  2  0  0  0  0
  5 12  1  0  0  0  0
  5 13  1  0  0  0  0
  5 21  1  0  0  0  0
  6  8  1  0  0  0  0
  6  9  2  0  0  0  0
  7  9  1  0  0  0  0
  7 22  1  0  0  0  0
  7 23  1  0  0  0  0
  8 11  1  0  0  0  0
  8 24  1  0  0  0  0
  8 25  1  0  0  0  0
  9 14  1  0  0  0  0
 10 11  1  0  0  0  0
 10 15  1  0  0  0  0
 11 26  1  0  0  0  0
 11 27  1  0  0  0  0
 12 28  1  0  0  0  0
 12 29  1  0  0  0  0
 12 30  1  0  0  0  0
 13 31  1  0  0  0  0
 13 32  1  0  0  0  0
 13 33  1  0  0  0  0
 14 34  1  0  0  0  0
 14 35  1  0  0  0  0
 14 36  1  0  0  0  0
 15 37  1  0  0  0  0
 15 38  1  0  0  0  0
 15 39  1  0  0  0  0
M  END
> <PUBCHEM_COMPOUND_CID>
585005

> <PUBCHEM_CONFORMER_RMSD>
0.6

> <PUBCHEM_CONFORMER_DIVERSEORDER>
1
2
13
11
4
10
6
14
12
9
5
3
8
7

> <PUBCHEM_MMFF94_PARTIAL_CHARGES>
10
10 -0.28
11 0.14
14 0.14
15 0.14
2 0.14
4 -0.14
6 -0.14
7 0.14
8 0.14
9 -0.28

> <PUBCHEM_EFFECTIVE_ROTOR_COUNT>
2.2

> <PUBCHEM_PHARMACOPHORE_FEATURES>
3
3 5 12 13 hydrophobe
5 4 6 8 10 11 rings
7 1 2 3 4 6 7 9 rings

> <PUBCHEM_HEAVY_ATOM_COUNT>
15

> <PUBCHEM_ATOM_DEF_STEREO_COUNT>
0

> <PUBCHEM_ATOM_UDEF_STEREO_COUNT>
1

> <PUBCHEM_BOND_DEF_STEREO_COUNT>
0

> <PUBCHEM_BOND_UDEF_STEREO_COUNT>
0

> <PUBCHEM_ISOTOPIC_ATOM_COUNT>
0

> <PUBCHEM_COMPONENT_COUNT>
1

> <PUBCHEM_CACTVS_TAUTO_COUNT>
1

> <PUBCHEM_CONFORMER_ID>
0008ED2D00000001

> <PUBCHEM_MMFF94_ENERGY>
33.3036

> <PUBCHEM_FEATURE_SELFOVERLAP>
15.247

> <PUBCHEM_SHAPE_FINGERPRINT>
10967382 1 18409736135974530994
11321824 6 17979629044140193486
12202030 40 16486417542985941030
12400797 292 18197490938286652975
12423570 1 17549548400999067787
13140716 1 18194969775113939625
13299463 15 18260258668365913845
14251711 518 18192155901604667522
14817 1 15912210780824100153
15001771 113 18342458183623345505
16945 1 18410016554236384065
20645476 183 16022027652944041262
20871998 184 17546172900259564632
21501502 16 18194684761574754506
21947302 44 17754718743994914293
22112679 90 18192697956515651467
2334 1 17833838552551959352
23419403 2 14572296544698720464
23552423 10 18268428112911844363
23559900 14 16753529389457346314
241688 4 18265329508445117080
25 1 18186798114739287077
257057 1 18266443335330622658
2748010 2 18048325452680823120
34934 24 18264212417737744440
535629 181 18336550400130762955
549884 4 18188194473200518349
63268167 104 18335138695835746681
6338986 31 18339626846376355462
6992083 37 18127140671089672137
7832392 63 18340493274634935105
81228 2 18192147092700785080
90525 40 17473552347688667830

> <PUBCHEM_SHAPE_MULTIPOLES>
308.69
4.19
3.2
1.06
0.82
0.88
-0.1
-1.43
1.28
-1.05
0.35
0.51
-0.12
-0.65

> <PUBCHEM_SHAPE_SELFOVERLAP>
632.906

> <PUBCHEM_SHAPE_VOLUME>
176.3

> <PUBCHEM_COORDINATE_TYPE>
2
5
10

$$$$
