91752839
  -OEChem-09182013483D

 38 39  0     1  0  0  0  0  0999 V2000
   -2.3698    0.5431   -1.6272 O   0  0  0  0  0  0  0  0  0  0  0  0
    1.5391    0.3148    0.6999 C   0  0  2  0  0  0  0  0  0  0  0  0
    1.3835    1.8406    0.5173 C   0  0  1  0  0  0  0  0  0  0  0  0
    2.8429   -0.2097    0.0683 C   0  0  0  0  0  0  0  0  0  0  0  0
    0.5182   -0.5724    0.0383 C   0  0  0  0  0  0  0  0  0  0  0  0
    2.5684   -1.6659   -0.2942 C   0  0  0  0  0  0  0  0  0  0  0  0
    0.7835    2.2406   -0.8463 C   0  0  0  0  0  0  0  0  0  0  0  0
    1.0839   -1.6687   -0.4958 C   0  0  0  0  0  0  0  0  0  0  0  0
   -0.8755   -0.2324    0.0247 C   0  0  0  0  0  0  0  0  0  0  0  0
   -0.7367    2.1621   -0.9766 C   0  0  0  0  0  0  0  0  0  0  0  0
    0.6272    2.4651    1.6963 C   0  0  0  0  0  0  0  0  0  0  0  0
   -1.3802    0.7881   -0.9338 C   0  0  0  0  0  0  0  0  0  0  0  0
    0.4417   -2.8026   -1.2175 C   0  0  0  0  0  0  0  0  0  0  0  0
   -1.7842   -0.8316    0.8072 C   0  0  0  0  0  0  0  0  0  0  0  0
   -3.2347   -0.4534    0.7695 C   0  0  0  0  0  0  0  0  0  0  0  0
   -1.4073   -1.9177    1.7699 C   0  0  0  0  0  0  0  0  0  0  0  0
    1.5624    0.0756    1.7726 H   0  0  0  0  0  0  0  0  0  0  0  0
    2.3936    2.2734    0.5535 H   0  0  0  0  0  0  0  0  0  0  0  0
    3.6924   -0.1169    0.7535 H   0  0  0  0  0  0  0  0  0  0  0  0
    3.0988    0.3511   -0.8403 H   0  0  0  0  0  0  0  0  0  0  0  0
    2.8454   -2.3449    0.5191 H   0  0  0  0  0  0  0  0  0  0  0  0
    3.1141   -1.9487   -1.1995 H   0  0  0  0  0  0  0  0  0  0  0  0
    1.2526    1.6589   -1.6492 H   0  0  0  0  0  0  0  0  0  0  0  0
    1.0662    3.2854   -1.0342 H   0  0  0  0  0  0  0  0  0  0  0  0
   -0.9957    2.5903   -1.9543 H   0  0  0  0  0  0  0  0  0  0  0  0
   -1.2335    2.7881   -0.2276 H   0  0  0  0  0  0  0  0  0  0  0  0
   -0.3654    2.0269    1.8344 H   0  0  0  0  0  0  0  0  0  0  0  0
    0.5109    3.5448    1.5549 H   0  0  0  0  0  0  0  0  0  0  0  0
    1.1836    2.3140    2.6281 H   0  0  0  0  0  0  0  0  0  0  0  0
    0.8722   -2.9053   -2.2187 H   0  0  0  0  0  0  0  0  0  0  0  0
   -0.6373   -2.6683   -1.3361 H   0  0  0  0  0  0  0  0  0  0  0  0
    0.6058   -3.7379   -0.6731 H   0  0  0  0  0  0  0  0  0  0  0  0
   -3.7660   -1.0307    0.0060 H   0  0  0  0  0  0  0  0  0  0  0  0
   -1.8610   -2.8644    1.4576 H   0  0  0  0  0  0  0  0  0  0  0  0
   -0.3343   -2.0856    1.8865 H   0  0  0  0  0  0  0  0  0  0  0  0
   -3.4049    0.6167    0.6160 H   0  0  0  0  0  0  0  0  0  0  0  0
   -1.7865   -1.6752    2.7692 H   0  0  0  0  0  0  0  0  0  0  0  0
   -3.7073   -0.6810    1.7325 H   0  0  0  0  0  0  0  0  0  0  0  0
  1 12  2  0  0  0  0
  2  3  1  0  0  0  0
  2  4  1  0  0  0  0
  2  5  1  0  0  0  0
  2 17  1  0  0  0  0
  3  7  1  0  0  0  0
  3 11  1  0  0  0  0
  3 18  1  0  0  0  0
  4  6  1  0  0  0  0
  4 19  1  0  0  0  0
  4 20  1  0  0  0  0
  5  8  2  0  0  0  0
  5  9  1  0  0  0  0
  6  8  1  0  0  0  0
  6 21  1  0  0  0  0
  6 22  1  0  0  0  0
  7 10  1  0  0  0  0
  7 23  1  0  0  0  0
  7 24  1  0  0  0  0
  8 13  1  0  0  0  0
  9 12  1  0  0  0  0
  9 14  2  0  0  0  0
 10 12  1  0  0  0  0
 10 25  1  0  0  0  0
 10 26  1  0  0  0  0
 11 27  1  0  0  0  0
 11 28  1  0  0  0  0
 11 29  1  0  0  0  0
 13 30  1  0  0  0  0
 13 31  1  0  0  0  0
 13 32  1  0  0  0  0
 14 15  1  0  0  0  0
 14 16  1  0  0  0  0
 15 33  1  0  0  0  0
 15 36  1  0  0  0  0
 15 38  1  0  0  0  0
 16 34  1  0  0  0  0
 16 35  1  0  0  0  0
 16 37  1  0  0  0  0
M  END
> <PUBCHEM_COMPOUND_CID>
91752839

> <PUBCHEM_CONFORMER_RMSD>
0.6

> <PUBCHEM_CONFORMER_DIVERSEORDER>
1
2
3

> <PUBCHEM_MMFF94_PARTIAL_CHARGES>
12
1 -0.57
10 0.06
12 0.49
13 0.14
14 -0.28
15 0.14
16 0.14
2 0.14
5 -0.14
6 0.14
8 -0.28
9 0.01

> <PUBCHEM_EFFECTIVE_ROTOR_COUNT>
1

> <PUBCHEM_PHARMACOPHORE_FEATURES>
4
1 1 acceptor
3 14 15 16 hydrophobe
5 2 4 5 6 8 rings
7 2 3 5 7 9 10 12 rings

> <PUBCHEM_HEAVY_ATOM_COUNT>
16

> <PUBCHEM_ATOM_DEF_STEREO_COUNT>
2

> <PUBCHEM_ATOM_UDEF_STEREO_COUNT>
0

> <PUBCHEM_BOND_DEF_STEREO_COUNT>
0

> <PUBCHEM_BOND_UDEF_STEREO_COUNT>
0

> <PUBCHEM_ISOTOPIC_ATOM_COUNT>
0

> <PUBCHEM_COMPONENT_COUNT>
1

> <PUBCHEM_CACTVS_TAUTO_COUNT>
12

> <PUBCHEM_CONFORMER_ID>
0578098700000001

> <PUBCHEM_MMFF94_ENERGY>
46.5887

> <PUBCHEM_FEATURE_SELFOVERLAP>
20.349

> <PUBCHEM_SHAPE_FINGERPRINT>
12400797 245 16958448119512822651
12423570 1 17831007293004446064
12524768 44 18263354948944208267
12716301 132 17531792594154986193
13898156 1 16128376020911793647
144361 1 17543599364334881724
14761567 1 17393598087126322711
14817 1 17024286708322256275
15490181 7 17478908524036102042
15881359 60 17324334781594340879
16945 1 18114177480611640320
18534176 82 17969227737345832726
20511035 2 18191021411741997317
20588541 1 18337113354189188887
21061003 4 18271539610454040194
22344851 341 17327155668637715328
22721475 48 18335994098602053987
22802520 49 17978793402534148550
23419403 2 18338779152997281777
23493267 7 18041838403355253050
23526113 38 18046048390096064029
23559900 14 17759793746810667690
2748010 2 18263915699821893044
353137 74 17257079377515575892
430814 3 17472719381647184416
5255222 1 17980482587639212168
568465 68 18342459270144550808
576247 118 17976859473197500407
81228 2 17760960366447141394
8809292 202 17903922158467802822

> <PUBCHEM_SHAPE_MULTIPOLES>
323.4
3.44
3.06
1.51
0.98
0.14
-0.16
-0.86
-0.46
-0.99
0.29
0.6
0.23
1.02

> <PUBCHEM_SHAPE_SELFOVERLAP>
674.361

> <PUBCHEM_SHAPE_VOLUME>
185.7

> <PUBCHEM_COORDINATE_TYPE>
2
5
10

$$$$
