5316900
  -OEChem-09182010403D

 38 40  0     0  0  0  0  0  0999 V2000
   -0.6361    1.0250    0.1221 O   0  0  0  0  0  0  0  0  0  0  0  0
    0.5210   -2.4463    0.5689 O   0  0  0  0  0  0  0  0  0  0  0  0
   -4.6240   -1.7228   -0.0615 O   0  0  0  0  0  0  0  0  0  0  0  0
   -2.2325   -2.7205    0.2877 O   0  0  0  0  0  0  0  0  0  0  0  0
    4.5382    0.6231   -1.7113 O   0  0  0  0  0  0  0  0  0  0  0  0
   -4.9084    2.9960   -0.5053 O   0  0  0  0  0  0  0  0  0  0  0  0
    5.6243    1.1620    0.7900 O   0  0  0  0  0  0  0  0  0  0  0  0
   -2.5964   -0.4038    0.0379 C   0  0  0  0  0  0  0  0  0  0  0  0
    0.1627   -0.0946    0.2940 C   0  0  0  0  0  0  0  0  0  0  0  0
   -1.9895    0.8493   -0.0074 C   0  0  0  0  0  0  0  0  0  0  0  0
    1.5937    0.2343    0.4204 C   0  0  0  0  0  0  0  0  0  0  0  0
   -0.2979   -1.3569    0.3641 C   0  0  0  0  0  0  0  0  0  0  0  0
   -1.7556   -1.5948    0.2337 C   0  0  0  0  0  0  0  0  0  0  0  0
   -3.9818   -0.5222   -0.0989 C   0  0  0  0  0  0  0  0  0  0  0  0
   -2.7654    1.9943   -0.1897 C   0  0  0  0  0  0  0  0  0  0  0  0
    2.4035    0.2753   -0.7149 C   0  0  0  0  0  0  0  0  0  0  0  0
    2.1395    0.5046    1.6756 C   0  0  0  0  0  0  0  0  0  0  0  0
   -4.1489    1.8803   -0.3270 C   0  0  0  0  0  0  0  0  0  0  0  0
   -4.7557    0.6244   -0.2818 C   0  0  0  0  0  0  0  0  0  0  0  0
    3.7579    0.5864   -0.5951 C   0  0  0  0  0  0  0  0  0  0  0  0
    3.4939    0.8157    1.7955 C   0  0  0  0  0  0  0  0  0  0  0  0
    4.3031    0.8566    0.6600 C   0  0  0  0  0  0  0  0  0  0  0  0
    0.9751   -2.9733   -0.6630 C   0  0  0  0  0  0  0  0  0  0  0  0
    5.1794   -0.5920   -2.0941 C   0  0  0  0  0  0  0  0  0  0  0  0
   -2.2950    2.9738   -0.2251 H   0  0  0  0  0  0  0  0  0  0  0  0
    1.9851    0.0773   -1.6994 H   0  0  0  0  0  0  0  0  0  0  0  0
    1.5212    0.4769    2.5696 H   0  0  0  0  0  0  0  0  0  0  0  0
   -5.8341    0.5338   -0.3885 H   0  0  0  0  0  0  0  0  0  0  0  0
    3.9125    1.0253    2.7760 H   0  0  0  0  0  0  0  0  0  0  0  0
   -3.9894   -2.4447    0.0640 H   0  0  0  0  0  0  0  0  0  0  0  0
    1.5937   -3.8497   -0.4461 H   0  0  0  0  0  0  0  0  0  0  0  0
    0.1362   -3.3059   -1.2848 H   0  0  0  0  0  0  0  0  0  0  0  0
    1.5910   -2.2665   -1.2226 H   0  0  0  0  0  0  0  0  0  0  0  0
   -5.8418    2.7334   -0.5818 H   0  0  0  0  0  0  0  0  0  0  0  0
    6.0249    1.1852   -0.0960 H   0  0  0  0  0  0  0  0  0  0  0  0
    5.7889   -0.3935   -2.9797 H   0  0  0  0  0  0  0  0  0  0  0  0
    5.8320   -0.9561   -1.2942 H   0  0  0  0  0  0  0  0  0  0  0  0
    4.4342   -1.3536   -2.3454 H   0  0  0  0  0  0  0  0  0  0  0  0
  1  9  1  0  0  0  0
  1 10  1  0  0  0  0
  2 12  1  0  0  0  0
  2 23  1  0  0  0  0
  3 14  1  0  0  0  0
  3 30  1  0  0  0  0
  4 13  2  0  0  0  0
  5 20  1  0  0  0  0
  5 24  1  0  0  0  0
  6 18  1  0  0  0  0
  6 34  1  0  0  0  0
  7 22  1  0  0  0  0
  7 35  1  0  0  0  0
  8 10  1  0  0  0  0
  8 13  1  0  0  0  0
  8 14  2  0  0  0  0
  9 11  1  0  0  0  0
  9 12  2  0  0  0  0
 10 15  2  0  0  0  0
 11 16  2  0  0  0  0
 11 17  1  0  0  0  0
 12 13  1  0  0  0  0
 14 19  1  0  0  0  0
 15 18  1  0  0  0  0
 15 25  1  0  0  0  0
 16 20  1  0  0  0  0
 16 26  1  0  0  0  0
 17 21  2  0  0  0  0
 17 27  1  0  0  0  0
 18 19  2  0  0  0  0
 19 28  1  0  0  0  0
 20 22  2  0  0  0  0
 21 22  1  0  0  0  0
 21 29  1  0  0  0  0
 23 31  1  0  0  0  0
 23 32  1  0  0  0  0
 23 33  1  0  0  0  0
 24 36  1  0  0  0  0
 24 37  1  0  0  0  0
 24 38  1  0  0  0  0
M  END
> <PUBCHEM_COMPOUND_CID>
5316900

> <PUBCHEM_CONFORMER_RMSD>
0.6

> <PUBCHEM_CONFORMER_DIVERSEORDER>
1
5
10
2
6
9
8
3
7
4

> <PUBCHEM_MMFF94_PARTIAL_CHARGES>
32
1 -0.16
10 0.08
11 0.03
12 0.09
13 0.47
14 0.08
15 -0.15
16 -0.15
17 -0.15
18 0.08
19 -0.15
2 -0.36
20 0.08
21 -0.15
22 0.08
23 0.28
24 0.28
25 0.15
26 0.15
27 0.15
28 0.15
29 0.15
3 -0.53
30 0.45
34 0.45
35 0.45
4 -0.57
5 -0.36
6 -0.53
7 -0.53
8 0.09
9 0.05

> <PUBCHEM_EFFECTIVE_ROTOR_COUNT>
3

> <PUBCHEM_PHARMACOPHORE_FEATURES>
10
1 1 acceptor
1 2 acceptor
1 3 donor
1 4 acceptor
1 5 acceptor
1 6 donor
1 7 donor
6 1 8 9 10 12 13 rings
6 11 16 17 20 21 22 rings
6 8 10 14 15 18 19 rings

> <PUBCHEM_HEAVY_ATOM_COUNT>
24

> <PUBCHEM_ATOM_DEF_STEREO_COUNT>
0

> <PUBCHEM_ATOM_UDEF_STEREO_COUNT>
0

> <PUBCHEM_BOND_DEF_STEREO_COUNT>
0

> <PUBCHEM_BOND_UDEF_STEREO_COUNT>
0

> <PUBCHEM_ISOTOPIC_ATOM_COUNT>
0

> <PUBCHEM_COMPONENT_COUNT>
1

> <PUBCHEM_CACTVS_TAUTO_COUNT>
69

> <PUBCHEM_CONFORMER_ID>
0051212400000001

> <PUBCHEM_MMFF94_ENERGY>
89.7572

> <PUBCHEM_FEATURE_SELFOVERLAP>
50.78

> <PUBCHEM_SHAPE_FINGERPRINT>
10411042 1 17760363697170495291
10498660 4 18410854334963366025
10615611 76 17313401040156791261
10670039 82 18260271823961706564
11796584 16 18412548691926479038
11963148 33 18191015906107017419
12236239 1 17603577560975258440
12390115 104 18341902836242554089
12403259 415 18272092703351892168
12403814 3 17168133534389267949
12616971 3 16660638566516677384
12788726 201 17317057058322534458
12916748 109 18336267941616987080
13140716 1 17975694202021651611
13544592 145 18202571691767196302
14341114 328 16660650652048376096
14386348 63 17846220007459231552
14573314 32 18272655649274122892
14739800 52 17973435792380690568
15042514 8 18120653797505515371
15196674 1 18409724028588525603
1601671 61 18259983751878493924
16752209 62 18336263556402955178
18186145 218 18060705000158145672
200 152 15339124545548917128
20645477 70 16917077655067878188
20691752 17 17241046483574608667
21033648 29 17987784319705313328
21065201 7 18341330084566906842
21279426 13 18271248214382554670
22182313 1 18338818744459685287
22393880 68 18202563955940590703
23366157 5 17824818940931982243
23402539 116 18339913904852567228
23557571 272 18271241724512981616
23559900 14 18272656749276341484
2748010 2 17834104626482854323
3298306 158 18201721721760596118
350125 39 18048030774895328384
38570 142 16516837860631411068
469060 322 18264224633299844801
474 4 17530964661561349027
495365 180 17703498931508359962
4990 188 17989205945332214168
5104073 3 18263645074502057587
5265222 85 18196095663428220118
5281201 14 17846501456466152536
56616090 163 18337963285478481983
59682541 52 17130701674296637453
59755656 215 18341333297001899814
633830 44 18130496487762390324
9981440 41 18333448746680666259

> <PUBCHEM_SHAPE_MULTIPOLES>
452.82
11.34
2.63
1.31
2.75
1.24
0.14
-5.29
2.84
-2.65
0.14
2.41
-0.14
1.38

> <PUBCHEM_SHAPE_SELFOVERLAP>
1001.765

> <PUBCHEM_SHAPE_VOLUME>
242.2

> <PUBCHEM_COORDINATE_TYPE>
2
5
10

$$$$
