589433
  -OEChem-09182009423D

 37 39  0     1  0  0  0  0  0999 V2000
   -0.9634    0.2041   -0.5250 C   0  0  2  0  0  0  0  0  0  0  0  0
   -2.2364   -0.3889    0.0225 C   0  0  0  0  0  0  0  0  0  0  0  0
   -1.2602   -1.2640   -0.7165 C   0  0  2  0  0  0  0  0  0  0  0  0
    0.1423    0.6211    0.4075 C   0  0  2  0  0  0  0  0  0  0  0  0
   -0.4484   -2.3042   -0.0018 C   0  0  0  0  0  0  0  0  0  0  0  0
    0.3889    2.1470    0.4745 C   0  0  1  0  0  0  0  0  0  0  0  0
   -3.4996   -0.0341   -0.6887 C   0  0  0  0  0  0  0  0  0  0  0  0
   -2.4281   -0.5551    1.4920 C   0  0  0  0  0  0  0  0  0  0  0  0
    1.5006    0.1327   -0.0409 C   0  0  0  0  0  0  0  0  0  0  0  0
    1.0059   -2.3192   -0.4933 C   0  0  0  0  0  0  0  0  0  0  0  0
    1.4873    2.4227   -0.5610 C   0  0  0  0  0  0  0  0  0  0  0  0
    1.8943   -1.2518    0.1152 C   0  0  0  0  0  0  0  0  0  0  0  0
    2.2279    1.1240   -0.5766 C   0  0  0  0  0  0  0  0  0  0  0  0
   -0.8304    3.0437    0.3193 C   0  0  0  0  0  0  0  0  0  0  0  0
    3.0193   -1.5782    0.7731 C   0  0  0  0  0  0  0  0  0  0  0  0
   -0.9958    0.7971   -1.4329 H   0  0  0  0  0  0  0  0  0  0  0  0
   -1.5090   -1.5813   -1.7241 H   0  0  0  0  0  0  0  0  0  0  0  0
   -0.0199    0.2838    1.4342 H   0  0  0  0  0  0  0  0  0  0  0  0
   -0.9000   -3.2779   -0.2309 H   0  0  0  0  0  0  0  0  0  0  0  0
   -0.4567   -2.2237    1.0871 H   0  0  0  0  0  0  0  0  0  0  0  0
    0.8162    2.3639    1.4668 H   0  0  0  0  0  0  0  0  0  0  0  0
   -3.3514    0.0884   -1.7677 H   0  0  0  0  0  0  0  0  0  0  0  0
   -4.2550   -0.8146   -0.5477 H   0  0  0  0  0  0  0  0  0  0  0  0
   -3.9062    0.9078   -0.3047 H   0  0  0  0  0  0  0  0  0  0  0  0
   -2.7873    0.3845    1.9278 H   0  0  0  0  0  0  0  0  0  0  0  0
   -3.1944   -1.3157    1.6828 H   0  0  0  0  0  0  0  0  0  0  0  0
   -1.5535   -0.8513    2.0713 H   0  0  0  0  0  0  0  0  0  0  0  0
    1.0353   -2.2238   -1.5868 H   0  0  0  0  0  0  0  0  0  0  0  0
    1.4211   -3.3100   -0.2653 H   0  0  0  0  0  0  0  0  0  0  0  0
    2.1299    3.2481   -0.2396 H   0  0  0  0  0  0  0  0  0  0  0  0
    1.0880    2.6457   -1.5559 H   0  0  0  0  0  0  0  0  0  0  0  0
    3.2204    1.0139   -0.9908 H   0  0  0  0  0  0  0  0  0  0  0  0
   -1.2692    2.9745   -0.6807 H   0  0  0  0  0  0  0  0  0  0  0  0
   -1.6004    2.7811    1.0518 H   0  0  0  0  0  0  0  0  0  0  0  0
   -0.5545    4.0910    0.4824 H   0  0  0  0  0  0  0  0  0  0  0  0
    3.3233   -2.6133    0.8909 H   0  0  0  0  0  0  0  0  0  0  0  0
    3.6645   -0.8252    1.2154 H   0  0  0  0  0  0  0  0  0  0  0  0
  1  2  1  0  0  0  0
  1  3  1  0  0  0  0
  1  4  1  0  0  0  0
  1 16  1  0  0  0  0
  2  3  1  0  0  0  0
  2  7  1  0  0  0  0
  2  8  1  0  0  0  0
  3  5  1  0  0  0  0
  3 17  1  0  0  0  0
  4  6  1  0  0  0  0
  4  9  1  0  0  0  0
  4 18  1  0  0  0  0
  5 10  1  0  0  0  0
  5 19  1  0  0  0  0
  5 20  1  0  0  0  0
  6 11  1  0  0  0  0
  6 14  1  0  0  0  0
  6 21  1  0  0  0  0
  7 22  1  0  0  0  0
  7 23  1  0  0  0  0
  7 24  1  0  0  0  0
  8 25  1  0  0  0  0
  8 26  1  0  0  0  0
  8 27  1  0  0  0  0
  9 12  1  0  0  0  0
  9 13  2  0  0  0  0
 10 12  1  0  0  0  0
 10 28  1  0  0  0  0
 10 29  1  0  0  0  0
 11 13  1  0  0  0  0
 11 30  1  0  0  0  0
 11 31  1  0  0  0  0
 12 15  2  0  0  0  0
 13 32  1  0  0  0  0
 14 33  1  0  0  0  0
 14 34  1  0  0  0  0
 14 35  1  0  0  0  0
 15 36  1  0  0  0  0
 15 37  1  0  0  0  0
M  END
> <PUBCHEM_COMPOUND_CID>
589433

> <PUBCHEM_CONFORMER_RMSD>
0.4

> <PUBCHEM_CONFORMER_DIVERSEORDER>
2
16
14
1
29
24
23
28
27
21
15
25
10
11
20
19
22
8
7
18
3
12
26
4
6
9
5
17
13

> <PUBCHEM_MMFF94_PARTIAL_CHARGES>
18
1 -0.19
10 0.14
11 0.14
12 -0.14
13 -0.29
15 -0.3
16 0.1
17 0.1
2 -0.19
3 -0.19
32 0.15
36 0.15
37 0.15
4 0.23
5 0.09
7 0.09
8 0.09
9 -0.14

> <PUBCHEM_EFFECTIVE_ROTOR_COUNT>
1

> <PUBCHEM_PHARMACOPHORE_FEATURES>
3
3 2 7 8 hydrophobe
5 4 6 9 11 13 rings
7 1 3 4 5 9 10 12 rings

> <PUBCHEM_HEAVY_ATOM_COUNT>
15

> <PUBCHEM_ATOM_DEF_STEREO_COUNT>
0

> <PUBCHEM_ATOM_UDEF_STEREO_COUNT>
4

> <PUBCHEM_BOND_DEF_STEREO_COUNT>
0

> <PUBCHEM_BOND_UDEF_STEREO_COUNT>
0

> <PUBCHEM_ISOTOPIC_ATOM_COUNT>
0

> <PUBCHEM_COMPONENT_COUNT>
1

> <PUBCHEM_CACTVS_TAUTO_COUNT>
1

> <PUBCHEM_CONFORMER_ID>
0008FE7900000002

> <PUBCHEM_MMFF94_ENERGY>
43.4542

> <PUBCHEM_FEATURE_SELFOVERLAP>
15.264

> <PUBCHEM_SHAPE_FINGERPRINT>
104564 63 18197223542180901492
10967382 1 18339358677149993828
10980938 120 18339085998545834729
12382932 28 18268984457221324058
12423570 1 9492716840927272592
13140716 1 18411135878627814226
13172582 1 18413387631170309826
14817 1 8597165964032995441
15490181 7 17762617699737030246
15775835 57 18120660398526526357
16945 1 18339369573498153318
193761 8 17475510573508239854
20511035 2 18127397063515850814
20871998 184 18053377696052242162
21130352 189 18409440367293996087
21639500 275 18267567174127819927
2334 1 18123751117185859310
23388829 49 18340759339189632422
23419403 2 17542451221151395108
241688 4 17834961862741390938
25 1 18336826515083266301
2748010 2 17765437543409482454
2897 32 18410860962118632572
305870 269 17978216481142043888
5255222 1 18048313637230709333
528862 383 18335705000042711578
63268167 104 18340769350790008979
7364860 26 18340481295949748564
81228 2 17904765475048147488

> <PUBCHEM_SHAPE_MULTIPOLES>
308.69
3.94
3.17
0.98
1.25
1.41
-0.18
-1.03
-0.13
-1.07
0
0.31
-0.09
-0.38

> <PUBCHEM_SHAPE_SELFOVERLAP>
654.256

> <PUBCHEM_SHAPE_VOLUME>
174.7

> <PUBCHEM_COORDINATE_TYPE>
2
5
10

$$$$
