5371839
  -OEChem-09182014223D

 37 38  0     1  0  0  0  0  0999 V2000
    3.1418   -0.2373   -0.2480 C   0  0  2  0  0  0  0  0  0  0  0  0
    2.6066    1.1640   -0.1867 C   0  0  1  0  0  0  0  0  0  0  0  0
    2.7833    0.4838   -1.5215 C   0  0  0  0  0  0  0  0  0  0  0  0
    2.3237   -1.3134    0.3978 C   0  0  0  0  0  0  0  0  0  0  0  0
    0.7753   -1.1817    0.2578 C   0  0  0  0  0  0  0  0  0  0  0  0
    1.2656    1.3445    0.4092 C   0  0  0  0  0  0  0  0  0  0  0  0
    0.2811    0.2776    0.1609 C   0  0  0  0  0  0  0  0  0  0  0  0
    0.1418   -1.8270    1.5142 C   0  0  0  0  0  0  0  0  0  0  0  0
    0.3298   -2.0235   -0.9653 C   0  0  0  0  0  0  0  0  0  0  0  0
   -0.9841    0.5871   -0.1854 C   0  0  0  0  0  0  0  0  0  0  0  0
    0.9643    2.3955    1.1955 C   0  0  0  0  0  0  0  0  0  0  0  0
   -2.0432   -0.4345   -0.4545 C   0  0  0  0  0  0  0  0  0  0  0  0
   -3.4283    0.0854   -0.1524 C   0  0  0  0  0  0  0  0  0  0  0  0
   -4.1751    0.7336   -1.2838 C   0  0  0  0  0  0  0  0  0  0  0  0
   -3.9824   -0.0542    1.0621 C   0  0  0  0  0  0  0  0  0  0  0  0
    4.1992   -0.3763   -0.0479 H   0  0  0  0  0  0  0  0  0  0  0  0
    3.3244    1.9450    0.0491 H   0  0  0  0  0  0  0  0  0  0  0  0
    1.9172    0.1752   -2.0893 H   0  0  0  0  0  0  0  0  0  0  0  0
    3.6013    0.8228   -2.1484 H   0  0  0  0  0  0  0  0  0  0  0  0
    2.6778   -2.2894    0.0447 H   0  0  0  0  0  0  0  0  0  0  0  0
    2.5905   -1.2887    1.4641 H   0  0  0  0  0  0  0  0  0  0  0  0
   -0.9428   -1.8043    1.5908 H   0  0  0  0  0  0  0  0  0  0  0  0
    0.4414   -2.8799    1.5909 H   0  0  0  0  0  0  0  0  0  0  0  0
    0.5082   -1.3280    2.4212 H   0  0  0  0  0  0  0  0  0  0  0  0
    1.0391   -2.8363   -1.1650 H   0  0  0  0  0  0  0  0  0  0  0  0
   -0.6233   -2.5414   -0.8324 H   0  0  0  0  0  0  0  0  0  0  0  0
    0.2852   -1.4316   -1.8856 H   0  0  0  0  0  0  0  0  0  0  0  0
   -1.2673    1.6306   -0.3136 H   0  0  0  0  0  0  0  0  0  0  0  0
    1.6993    3.1687    1.3971 H   0  0  0  0  0  0  0  0  0  0  0  0
   -0.0068    2.5117    1.6658 H   0  0  0  0  0  0  0  0  0  0  0  0
   -1.9618   -1.3678    0.0877 H   0  0  0  0  0  0  0  0  0  0  0  0
   -2.0157   -0.6927   -1.5211 H   0  0  0  0  0  0  0  0  0  0  0  0
   -4.3118    0.0232   -2.1056 H   0  0  0  0  0  0  0  0  0  0  0  0
   -3.6206    1.5991   -1.6603 H   0  0  0  0  0  0  0  0  0  0  0  0
   -5.1669    1.0826   -0.9770 H   0  0  0  0  0  0  0  0  0  0  0  0
   -3.4447   -0.5329    1.8740 H   0  0  0  0  0  0  0  0  0  0  0  0
   -4.9829    0.3084    1.2729 H   0  0  0  0  0  0  0  0  0  0  0  0
  1  2  1  0  0  0  0
  1  3  1  0  0  0  0
  1  4  1  0  0  0  0
  1 16  1  0  0  0  0
  2  3  1  0  0  0  0
  2  6  1  0  0  0  0
  2 17  1  0  0  0  0
  3 18  1  0  0  0  0
  3 19  1  0  0  0  0
  4  5  1  0  0  0  0
  4 20  1  0  0  0  0
  4 21  1  0  0  0  0
  5  7  1  0  0  0  0
  5  8  1  0  0  0  0
  5  9  1  0  0  0  0
  6  7  1  0  0  0  0
  6 11  2  0  0  0  0
  7 10  2  0  0  0  0
  8 22  1  0  0  0  0
  8 23  1  0  0  0  0
  8 24  1  0  0  0  0
  9 25  1  0  0  0  0
  9 26  1  0  0  0  0
  9 27  1  0  0  0  0
 10 12  1  0  0  0  0
 10 28  1  0  0  0  0
 11 29  1  0  0  0  0
 11 30  1  0  0  0  0
 12 13  1  0  0  0  0
 12 31  1  0  0  0  0
 12 32  1  0  0  0  0
 13 14  1  0  0  0  0
 13 15  2  0  0  0  0
 14 33  1  0  0  0  0
 14 34  1  0  0  0  0
 14 35  1  0  0  0  0
 15 36  1  0  0  0  0
 15 37  1  0  0  0  0
M  END
> <PUBCHEM_COMPOUND_CID>
5371839

> <PUBCHEM_CONFORMER_RMSD>
0.6

> <PUBCHEM_CONFORMER_DIVERSEORDER>
4
11
5
1
8
3
7
2
12
13
10
6
9

> <PUBCHEM_MMFF94_PARTIAL_CHARGES>
22
1 -0.19
10 -0.29
11 -0.3
12 0.28
13 -0.28
14 0.14
15 -0.3
16 0.1
17 0.1
18 0.1
19 0.1
2 -0.06
28 0.15
29 0.15
3 -0.2
30 0.15
36 0.15
37 0.15
4 0.09
5 0.14
6 -0.04
7 -0.14

> <PUBCHEM_EFFECTIVE_ROTOR_COUNT>
2.6

> <PUBCHEM_PHARMACOPHORE_FEATURES>
2
3 5 8 9 hydrophobe
7 1 2 3 4 5 6 7 rings

> <PUBCHEM_HEAVY_ATOM_COUNT>
15

> <PUBCHEM_ATOM_DEF_STEREO_COUNT>
0

> <PUBCHEM_ATOM_UDEF_STEREO_COUNT>
2

> <PUBCHEM_BOND_DEF_STEREO_COUNT>
1

> <PUBCHEM_BOND_UDEF_STEREO_COUNT>
0

> <PUBCHEM_ISOTOPIC_ATOM_COUNT>
0

> <PUBCHEM_COMPONENT_COUNT>
1

> <PUBCHEM_CACTVS_TAUTO_COUNT>
1

> <PUBCHEM_CONFORMER_ID>
0051F7BF00000004

> <PUBCHEM_MMFF94_ENERGY>
56.1406

> <PUBCHEM_FEATURE_SELFOVERLAP>
10.148

> <PUBCHEM_SHAPE_FINGERPRINT>
107287 299 18333734615461063327
10980938 120 18413105052481702703
11031198 65 18334863826386881551
11471102 20 18411975849771422309
11615757 297 18273497884076700443
12654215 9 18337099086286966565
12716301 132 17753047477788724792
12932764 1 18411130364385242933
13134695 92 18194379148517765414
13221675 6 18343584036259180695
13380536 305 18201157745145830080
14144814 61 18202563960673056641
14289901 80 17240205452000469155
14993402 34 18060137639178398174
15219456 202 17894631435599890675
15775835 57 18409448123941551454
16945 1 18343865515230171690
18186145 218 18272937162752616637
20233049 118 18410285887509574804
20511035 2 18120378915239540286
20645477 70 18336537210708456679
20820808 20 18040437702502841252
21639500 275 18271234006540880125
21730867 7 17385722461345800251
22112679 90 17914906326594084632
22854114 111 18407757049451855741
231179 274 18261104158611348693
23402539 116 17775566412502727868
23402655 69 18411978044742466277
23419403 2 17469382106259514978
23493267 7 16950561073783524993
23557571 272 16008746888636816775
25 1 18410580599406368227
2748010 2 18052541263713428248
3060560 45 18130777958638877767
528886 8 18131349721770419718
5337951 7 18339930414954688400
53812653 166 18338234980788266496
633830 44 18131084739658172789
74978 22 17988353875513178869

> <PUBCHEM_SHAPE_MULTIPOLES>
308.69
6.17
2.01
1.32
6.63
0.01
0.01
1.16
1.39
-1.07
-0.55
0.17
-0.03
0.25

> <PUBCHEM_SHAPE_SELFOVERLAP>
631.537

> <PUBCHEM_SHAPE_VOLUME>
181.2

> <PUBCHEM_COORDINATE_TYPE>
2
5
10

$$$$
