14353345
  -OEChem-09182015143D

 40 42  0     1  0  0  0  0  0999 V2000
    0.4066   -0.6600   -0.2905 O   0  0  0  0  0  0  0  0  0  0  0  0
   -0.8040    2.8045    0.0188 O   0  0  0  0  0  0  0  0  0  0  0  0
    1.8756    3.1541    0.0789 O   0  0  0  0  0  0  0  0  0  0  0  0
    4.2847    2.2075    0.3022 O   0  0  0  0  0  0  0  0  0  0  0  0
    4.7471   -2.5124    0.1322 O   0  0  0  0  0  0  0  0  0  0  0  0
   -5.0279   -0.6438    1.4712 O   0  0  0  0  0  0  0  0  0  0  0  0
   -5.7646   -0.9283   -1.1932 O   0  0  0  0  0  0  0  0  0  0  0  0
   -0.4291    0.4204    0.1539 C   0  0  1  0  0  0  0  0  0  0  0  0
   -0.0039    1.7464   -0.4792 C   0  0  2  0  0  0  0  0  0  0  0  0
   -1.8586    0.0592   -0.2036 C   0  0  0  0  0  0  0  0  0  0  0  0
    1.4348    2.0254   -0.1030 C   0  0  0  0  0  0  0  0  0  0  0  0
    2.3085    0.8400   -0.0009 C   0  0  0  0  0  0  0  0  0  0  0  0
    1.7457   -0.4331   -0.1167 C   0  0  0  0  0  0  0  0  0  0  0  0
    3.6860    0.9898    0.1811 C   0  0  0  0  0  0  0  0  0  0  0  0
   -2.8001   -0.1295    0.8060 C   0  0  0  0  0  0  0  0  0  0  0  0
   -2.2253   -0.0830   -1.5402 C   0  0  0  0  0  0  0  0  0  0  0  0
    2.5698   -1.5592   -0.0853 C   0  0  0  0  0  0  0  0  0  0  0  0
    3.9458   -1.4125    0.0921 C   0  0  0  0  0  0  0  0  0  0  0  0
    4.5020   -0.1408    0.2298 C   0  0  0  0  0  0  0  0  0  0  0  0
   -4.1144   -0.4622    0.4774 C   0  0  0  0  0  0  0  0  0  0  0  0
   -3.5394   -0.4156   -1.8688 C   0  0  0  0  0  0  0  0  0  0  0  0
   -4.4839   -0.6051   -0.8601 C   0  0  0  0  0  0  0  0  0  0  0  0
    4.1138   -3.7824   -0.0136 C   0  0  0  0  0  0  0  0  0  0  0  0
   -4.5691   -0.4791    2.8116 C   0  0  0  0  0  0  0  0  0  0  0  0
   -0.3455    0.4862    1.2488 H   0  0  0  0  0  0  0  0  0  0  0  0
   -0.0615    1.7325   -1.5736 H   0  0  0  0  0  0  0  0  0  0  0  0
   -2.4579   -0.0054    1.8276 H   0  0  0  0  0  0  0  0  0  0  0  0
   -1.5017    0.0494   -2.3397 H   0  0  0  0  0  0  0  0  0  0  0  0
    2.0821   -2.5225   -0.1954 H   0  0  0  0  0  0  0  0  0  0  0  0
   -0.5542    3.6123   -0.4616 H   0  0  0  0  0  0  0  0  0  0  0  0
    5.5751   -0.0321    0.3681 H   0  0  0  0  0  0  0  0  0  0  0  0
   -3.8134   -0.5261   -2.9146 H   0  0  0  0  0  0  0  0  0  0  0  0
    3.6267    2.9177    0.2587 H   0  0  0  0  0  0  0  0  0  0  0  0
   -5.8356   -0.9838   -2.1617 H   0  0  0  0  0  0  0  0  0  0  0  0
    3.6392   -3.8856   -0.9954 H   0  0  0  0  0  0  0  0  0  0  0  0
    3.4176   -3.9820    0.8080 H   0  0  0  0  0  0  0  0  0  0  0  0
    4.8993   -4.5432    0.0423 H   0  0  0  0  0  0  0  0  0  0  0  0
   -4.2360    0.5469    3.0015 H   0  0  0  0  0  0  0  0  0  0  0  0
   -3.8067   -1.2214    3.0718 H   0  0  0  0  0  0  0  0  0  0  0  0
   -5.4256   -0.6608    3.4694 H   0  0  0  0  0  0  0  0  0  0  0  0
  1  8  1  0  0  0  0
  1 13  1  0  0  0  0
  2  9  1  0  0  0  0
  2 30  1  0  0  0  0
  3 11  2  0  0  0  0
  4 14  1  0  0  0  0
  4 33  1  0  0  0  0
  5 18  1  0  0  0  0
  5 23  1  0  0  0  0
  6 20  1  0  0  0  0
  6 24  1  0  0  0  0
  7 22  1  0  0  0  0
  7 34  1  0  0  0  0
  8  9  1  0  0  0  0
  8 10  1  0  0  0  0
  8 25  1  0  0  0  0
  9 11  1  0  0  0  0
  9 26  1  0  0  0  0
 10 15  2  0  0  0  0
 10 16  1  0  0  0  0
 11 12  1  0  0  0  0
 12 13  1  0  0  0  0
 12 14  2  0  0  0  0
 13 17  2  0  0  0  0
 14 19  1  0  0  0  0
 15 20  1  0  0  0  0
 15 27  1  0  0  0  0
 16 21  2  0  0  0  0
 16 28  1  0  0  0  0
 17 18  1  0  0  0  0
 17 29  1  0  0  0  0
 18 19  2  0  0  0  0
 19 31  1  0  0  0  0
 20 22  2  0  0  0  0
 21 22  1  0  0  0  0
 21 32  1  0  0  0  0
 23 35  1  0  0  0  0
 23 36  1  0  0  0  0
 23 37  1  0  0  0  0
 24 38  1  0  0  0  0
 24 39  1  0  0  0  0
 24 40  1  0  0  0  0
M  END
> <PUBCHEM_COMPOUND_CID>
14353345

> <PUBCHEM_CONFORMER_RMSD>
0.6

> <PUBCHEM_CONFORMER_DIVERSEORDER>
39
3
32
22
23
43
49
46
13
1
27
11
14
50
6
30
34
16
28
47
33
48
24
26
10
51
36
2
25
45
37
5
21
41
17
29
52
40
20
19
38
18
12
44
9
8
31
42
15
35
7
4

> <PUBCHEM_MMFF94_PARTIAL_CHARGES>
32
1 -0.36
10 -0.14
11 0.42
12 0.09
13 0.08
14 0.08
15 -0.15
16 -0.15
17 -0.15
18 0.08
19 -0.15
2 -0.68
20 0.08
21 -0.15
22 0.08
23 0.28
24 0.28
27 0.15
28 0.15
29 0.15
3 -0.57
30 0.4
31 0.15
32 0.15
33 0.45
34 0.45
4 -0.53
5 -0.36
6 -0.36
7 -0.53
8 0.42
9 0.34

> <PUBCHEM_EFFECTIVE_ROTOR_COUNT>
3.6

> <PUBCHEM_PHARMACOPHORE_FEATURES>
11
1 1 acceptor
1 2 acceptor
1 2 donor
1 3 acceptor
1 4 donor
1 5 acceptor
1 6 acceptor
1 7 donor
6 1 8 9 11 12 13 rings
6 10 15 16 20 21 22 rings
6 12 13 14 17 18 19 rings

> <PUBCHEM_HEAVY_ATOM_COUNT>
24

> <PUBCHEM_ATOM_DEF_STEREO_COUNT>
0

> <PUBCHEM_ATOM_UDEF_STEREO_COUNT>
2

> <PUBCHEM_BOND_DEF_STEREO_COUNT>
0

> <PUBCHEM_BOND_UDEF_STEREO_COUNT>
0

> <PUBCHEM_ISOTOPIC_ATOM_COUNT>
0

> <PUBCHEM_COMPONENT_COUNT>
1

> <PUBCHEM_CACTVS_TAUTO_COUNT>
218

> <PUBCHEM_CONFORMER_ID>
00DB03C100000027

> <PUBCHEM_MMFF94_ENERGY>
85.3657

> <PUBCHEM_FEATURE_SELFOVERLAP>
55.86

> <PUBCHEM_SHAPE_FINGERPRINT>
10411042 1 18267579105763739374
10622 236 17772159094504118399
10912923 1 17775568658507048347
11370993 144 18261402152427853777
11796584 16 17240479208588828379
12107183 9 17984148067459413041
12236239 1 17775286110120641261
12422481 6 17630616613091056895
12553582 1 18412827962988595246
12596602 18 17274541030840001227
12623949 98 17173244219070084619
12670546 56 17632294618343631633
13140716 1 17980757452909544648
13533116 47 18272644679938334567
13540713 4 18195225751735360004
13544653 18 18335983090653583060
13782708 43 17749114439430294555
14386348 63 17821726169668145051
14739800 52 16199291261207960896
14767858 380 18263379036165686678
14790565 3 17832712644604587900
15475509 84 17916315935077566384
15537594 2 18342742922880995518
17492 89 18196083349156264990
17844677 252 18411138009015651237
1813 80 18272379628768566076
18785283 64 17752775902469674468
19078846 21 17132120155849229169
193927 3 18261960626741002794
200 152 18272080630726311469
20028762 73 18130779041019239590
20511986 3 17703496783808434185
20645477 70 18335126605508232782
20739085 24 18341347616618134128
21033648 29 17968923297469283693
21065201 7 16588014697798485391
21267235 1 18413108347243968838
212916 134 15410901730094424047
21315764 119 15503205675021800099
21623969 137 18260551168586983466
221490 88 18336544903036841188
22182313 1 18263060181450424908
23175994 123 18186801379241713773
23557571 272 17240749697229282077
23559900 14 17095241427736222215
239999 70 17748825246127833376
312423 11 18337963272899444252
314194 84 18410858758853345490
341906 21 15410624674591536547
3421961 26 18411136918489564330
345986 75 17989205902382548496
34797466 226 16660652872678265991
46194498 28 17603862346801990852
5104073 3 18196365932365699440
573450 72 16988844994989192631
7064713 232 16917348104236240631
7288768 16 15978019043355196336
7970288 3 18339635629585320558

> <PUBCHEM_SHAPE_MULTIPOLES>
452.82
11.7
2.9
1.43
5.3
0.08
0.57
6.61
1.64
-5.27
0.04
3.3
0.37
0.2

> <PUBCHEM_SHAPE_SELFOVERLAP>
994.463

> <PUBCHEM_SHAPE_VOLUME>
244

> <PUBCHEM_COORDINATE_TYPE>
2
5
10

$$$$
