52936973
  -OEChem-09182014513D

 40 41  0     1  0  0  0  0  0999 V2000
    0.5921   -3.0122   -0.1335 O   0  0  0  0  0  0  0  0  0  0  0  0
   -1.4141    1.6700    1.2301 O   0  0  0  0  0  0  0  0  0  0  0  0
    2.9946   -1.6769   -0.7492 O   0  0  0  0  0  0  0  0  0  0  0  0
    1.0700   -0.6600    0.3522 C   0  0  2  0  0  0  0  0  0  0  0  0
    0.1950   -1.6738   -0.4400 C   0  0  2  0  0  0  0  0  0  0  0  0
   -1.8298   -0.1313   -0.3424 C   0  0  2  0  0  0  0  0  0  0  0  0
   -1.3050   -1.5511   -0.1323 C   0  0  0  0  0  0  0  0  0  0  0  0
    0.5023    0.7402    0.1757 C   0  0  0  0  0  0  0  0  0  0  0  0
   -0.9665    0.8432    0.4412 C   0  0  0  0  0  0  0  0  0  0  0  0
   -3.2984   -0.0309    0.0586 C   0  0  0  0  0  0  0  0  0  0  0  0
    2.5098   -0.6883   -0.1984 C   0  0  0  0  0  0  0  0  0  0  0  0
    1.1850    1.8298   -0.2345 C   0  0  0  0  0  0  0  0  0  0  0  0
    1.1550   -1.0126    1.8497 C   0  0  0  0  0  0  0  0  0  0  0  0
    3.3559    0.5354    0.0563 C   0  0  0  0  0  0  0  0  0  0  0  0
    2.6688    1.7637   -0.5150 C   0  0  0  0  0  0  0  0  0  0  0  0
   -3.9549    1.1808   -0.6004 C   0  0  0  0  0  0  0  0  0  0  0  0
   -4.0458   -1.3113   -0.3094 C   0  0  0  0  0  0  0  0  0  0  0  0
    0.5859    3.1855   -0.5085 C   0  0  0  0  0  0  0  0  0  0  0  0
    0.3414   -1.5334   -1.5196 H   0  0  0  0  0  0  0  0  0  0  0  0
   -1.7224    0.1284   -1.4048 H   0  0  0  0  0  0  0  0  0  0  0  0
   -1.8085   -2.2718   -0.7875 H   0  0  0  0  0  0  0  0  0  0  0  0
   -1.4915   -1.8898    0.8954 H   0  0  0  0  0  0  0  0  0  0  0  0
   -3.3871    0.0925    1.1460 H   0  0  0  0  0  0  0  0  0  0  0  0
    1.7117   -0.2525    2.4108 H   0  0  0  0  0  0  0  0  0  0  0  0
    0.1655   -1.0907    2.3121 H   0  0  0  0  0  0  0  0  0  0  0  0
    1.6749   -1.9645    2.0075 H   0  0  0  0  0  0  0  0  0  0  0  0
    4.3385    0.4038   -0.4095 H   0  0  0  0  0  0  0  0  0  0  0  0
    3.5148    0.6333    1.1354 H   0  0  0  0  0  0  0  0  0  0  0  0
    3.1640    2.6538   -0.1082 H   0  0  0  0  0  0  0  0  0  0  0  0
    2.8112    1.7866   -1.6032 H   0  0  0  0  0  0  0  0  0  0  0  0
   -3.4489    2.1136   -0.3340 H   0  0  0  0  0  0  0  0  0  0  0  0
   -3.9454    1.0927   -1.6925 H   0  0  0  0  0  0  0  0  0  0  0  0
   -4.9995    1.2730   -0.2836 H   0  0  0  0  0  0  0  0  0  0  0  0
   -3.9146   -1.5720   -1.3654 H   0  0  0  0  0  0  0  0  0  0  0  0
   -5.1220   -1.1760   -0.1467 H   0  0  0  0  0  0  0  0  0  0  0  0
   -3.7564   -2.1621    0.3153 H   0  0  0  0  0  0  0  0  0  0  0  0
    1.5153   -3.1205   -0.4171 H   0  0  0  0  0  0  0  0  0  0  0  0
    0.8938    3.8954    0.2657 H   0  0  0  0  0  0  0  0  0  0  0  0
   -0.5057    3.1815   -0.5560 H   0  0  0  0  0  0  0  0  0  0  0  0
    0.9345    3.5610   -1.4771 H   0  0  0  0  0  0  0  0  0  0  0  0
  1  5  1  0  0  0  0
  1 37  1  0  0  0  0
  2  9  2  0  0  0  0
  3 11  2  0  0  0  0
  4  5  1  0  0  0  0
  4  8  1  0  0  0  0
  4 11  1  0  0  0  0
  4 13  1  0  0  0  0
  5  7  1  0  0  0  0
  5 19  1  0  0  0  0
  6  7  1  0  0  0  0
  6  9  1  0  0  0  0
  6 10  1  0  0  0  0
  6 20  1  0  0  0  0
  7 21  1  0  0  0  0
  7 22  1  0  0  0  0
  8  9  1  0  0  0  0
  8 12  2  0  0  0  0
 10 16  1  0  0  0  0
 10 17  1  0  0  0  0
 10 23  1  0  0  0  0
 11 14  1  0  0  0  0
 12 15  1  0  0  0  0
 12 18  1  0  0  0  0
 13 24  1  0  0  0  0
 13 25  1  0  0  0  0
 13 26  1  0  0  0  0
 14 15  1  0  0  0  0
 14 27  1  0  0  0  0
 14 28  1  0  0  0  0
 15 29  1  0  0  0  0
 15 30  1  0  0  0  0
 16 31  1  0  0  0  0
 16 32  1  0  0  0  0
 16 33  1  0  0  0  0
 17 34  1  0  0  0  0
 17 35  1  0  0  0  0
 17 36  1  0  0  0  0
 18 38  1  0  0  0  0
 18 39  1  0  0  0  0
 18 40  1  0  0  0  0
M  END
> <PUBCHEM_COMPOUND_CID>
52936973

> <PUBCHEM_CONFORMER_RMSD>
0.6

> <PUBCHEM_CONFORMER_DIVERSEORDER>
1
3
2

> <PUBCHEM_MMFF94_PARTIAL_CHARGES>
14
1 -0.68
11 0.45
12 -0.28
14 0.06
15 0.14
18 0.14
2 -0.57
3 -0.57
37 0.4
4 0.2
5 0.28
6 0.06
8 -0.12
9 0.49

> <PUBCHEM_EFFECTIVE_ROTOR_COUNT>
2

> <PUBCHEM_PHARMACOPHORE_FEATURES>
7
1 1 acceptor
1 1 donor
1 2 acceptor
1 3 acceptor
3 10 16 17 hydrophobe
6 4 5 6 7 8 9 rings
6 4 8 11 12 14 15 rings

> <PUBCHEM_HEAVY_ATOM_COUNT>
18

> <PUBCHEM_ATOM_DEF_STEREO_COUNT>
3

> <PUBCHEM_ATOM_UDEF_STEREO_COUNT>
0

> <PUBCHEM_BOND_DEF_STEREO_COUNT>
0

> <PUBCHEM_BOND_UDEF_STEREO_COUNT>
0

> <PUBCHEM_ISOTOPIC_ATOM_COUNT>
0

> <PUBCHEM_COMPONENT_COUNT>
1

> <PUBCHEM_CACTVS_TAUTO_COUNT>
19

> <PUBCHEM_CONFORMER_ID>
0327C10D00000001

> <PUBCHEM_MMFF94_ENERGY>
43.1802

> <PUBCHEM_FEATURE_SELFOVERLAP>
35.545

> <PUBCHEM_SHAPE_FINGERPRINT>
10863032 1 18343303681926023462
10948715 1 18189053264543223068
10967382 1 18339363070959520934
10980938 120 18335417988874125429
11471102 20 18410851053929572725
11578080 2 17485618521320506249
11680986 33 18338243789956192010
116883 192 17762045550217135117
12654215 9 18262226738292440461
13140716 1 18339644412971821176
13221675 6 18410009966062539423
14993402 34 18410859862707134124
15196674 1 18411418422998133637
15219459 52 18411143558171289814
15536298 74 18272371983800703148
15775835 57 18114744948754820612
15852999 172 15285361699747509801
16945 1 18050009088592876668
18186145 218 18341339950106590845
19591789 44 17546451540858864995
20645477 70 18335976562989225223
21267235 1 18339933695982947223
21524375 3 17971752426354172453
221490 88 18335991972825675819
22344851 341 17973152113319950442
2334 1 18411425020305426408
23402539 116 18342446050483347694
23419403 2 15968132174051142220
23463225 33 18410291389219963758
23559900 14 17913500314170881148
238 59 17830973092549049509
25 1 18259702315329239269
2748010 2 18410864269412073542
3060560 45 18411411813207158191
335352 9 18267304227313002575
34934 24 18410002252243383468
353137 74 18413109459065478993
528886 8 18413105086957550626
589210 1 17833549381046445764
5939293 188 18409157814254529765
63268167 104 18335708272966183096
7364860 26 18198339748225588552
7832392 63 18339921627219433900
81228 2 17688582763112640601
9981440 41 17111279179613197728

> <PUBCHEM_SHAPE_MULTIPOLES>
352.82
5.63
2.86
0.99
4.12
0.47
-0.38
0.2
1.08
-0.88
0.41
-0.17
-0.11
-0.2

> <PUBCHEM_SHAPE_SELFOVERLAP>
738.321

> <PUBCHEM_SHAPE_VOLUME>
199.6

> <PUBCHEM_COORDINATE_TYPE>
2
5
10

$$$$
