69043
  -OEChem-09182010223D

 20 20  0     0  0  0  0  0  0999 V2000
    0.0089    2.0673   -1.2820 O   0  0  0  0  0  0  0  0  0  0  0  0
    3.4572   -0.5978   -0.5340 O   0  0  0  0  0  0  0  0  0  0  0  0
   -0.0270    2.3157    0.9771 O   0  0  0  0  0  0  0  0  0  0  0  0
    2.6716    1.2436    0.5424 O   0  0  0  0  0  0  0  0  0  0  0  0
   -3.5298   -0.5680   -0.0146 O   0  5  0  0  0  0  0  0  0  0  0  0
   -2.4766    1.3579   -0.0434 O   0  0  0  0  0  0  0  0  0  0  0  0
   -2.4726    0.1049   -0.0150 N   0  3  0  0  0  0  0  0  0  0  0  0
   -0.0174    0.1224    0.0215 C   0  0  0  0  0  0  0  0  0  0  0  0
    1.1917   -0.5723    0.0565 C   0  0  0  0  0  0  0  0  0  0  0  0
   -1.2240   -0.5773    0.0184 C   0  0  0  0  0  0  0  0  0  0  0  0
    1.1940   -1.9668    0.0885 C   0  0  0  0  0  0  0  0  0  0  0  0
   -1.2216   -1.9718    0.0504 C   0  0  0  0  0  0  0  0  0  0  0  0
   -0.0125   -2.6666    0.0856 C   0  0  0  0  0  0  0  0  0  0  0  0
   -0.0133    1.5834   -0.0126 C   0  0  0  0  0  0  0  0  0  0  0  0
    2.4713    0.1256    0.0613 C   0  0  0  0  0  0  0  0  0  0  0  0
    2.1176   -2.5382    0.1304 H   0  0  0  0  0  0  0  0  0  0  0  0
   -2.1392   -2.5545    0.0503 H   0  0  0  0  0  0  0  0  0  0  0  0
   -0.0106   -3.7524    0.1139 H   0  0  0  0  0  0  0  0  0  0  0  0
    0.0120    3.0481   -1.2992 H   0  0  0  0  0  0  0  0  0  0  0  0
    4.3151   -0.1220   -0.5261 H   0  0  0  0  0  0  0  0  0  0  0  0
  1 14  1  0  0  0  0
  1 19  1  0  0  0  0
  2 15  1  0  0  0  0
  2 20  1  0  0  0  0
  3 14  2  0  0  0  0
  4 15  2  0  0  0  0
  5  7  1  0  0  0  0
  6  7  2  0  0  0  0
  7 10  1  0  0  0  0
  8  9  2  0  0  0  0
  8 10  1  0  0  0  0
  8 14  1  0  0  0  0
  9 11  1  0  0  0  0
  9 15  1  0  0  0  0
 10 12  2  0  0  0  0
 11 13  2  0  0  0  0
 11 16  1  0  0  0  0
 12 13  1  0  0  0  0
 12 17  1  0  0  0  0
 13 18  1  0  0  0  0
M  CHG  2   5  -1   7   1
M  END
> <PUBCHEM_COMPOUND_CID>
69043

> <PUBCHEM_CONFORMER_RMSD>
0.6

> <PUBCHEM_CONFORMER_DIVERSEORDER>
1

> <PUBCHEM_MMFF94_PARTIAL_CHARGES>
20
1 -0.65
10 0.13
11 -0.15
12 -0.15
13 -0.15
14 0.63
15 0.63
16 0.15
17 0.15
18 0.15
19 0.5
2 -0.65
20 0.5
3 -0.57
4 -0.57
5 -0.52
6 -0.52
7 0.91
8 0.09
9 0.09

> <PUBCHEM_EFFECTIVE_ROTOR_COUNT>
3

> <PUBCHEM_PHARMACOPHORE_FEATURES>
10
1 1 acceptor
1 2 acceptor
1 3 acceptor
1 4 acceptor
1 5 acceptor
1 5 anion
1 6 acceptor
3 1 3 14 anion
3 2 4 15 anion
6 8 9 10 11 12 13 rings

> <PUBCHEM_HEAVY_ATOM_COUNT>
15

> <PUBCHEM_ATOM_DEF_STEREO_COUNT>
0

> <PUBCHEM_ATOM_UDEF_STEREO_COUNT>
0

> <PUBCHEM_BOND_DEF_STEREO_COUNT>
0

> <PUBCHEM_BOND_UDEF_STEREO_COUNT>
0

> <PUBCHEM_ISOTOPIC_ATOM_COUNT>
0

> <PUBCHEM_COMPONENT_COUNT>
1

> <PUBCHEM_CACTVS_TAUTO_COUNT>
1

> <PUBCHEM_CONFORMER_ID>
00010DB300000001

> <PUBCHEM_MMFF94_ENERGY>
59.615

> <PUBCHEM_FEATURE_SELFOVERLAP>
50.954

> <PUBCHEM_SHAPE_FINGERPRINT>
108231 29 18343582966485452008
10967382 1 18410855503099109210
11132069 177 18341039796280173610
11206711 2 17832713374242054646
12382932 28 18268704099036369712
12524768 44 18412268306832140494
13140716 1 18049443948391069427
13380535 220 18119248616938092030
13897977 150 18193269698531046805
14614273 12 18045498616981097924
14617773 55 17627504935207792065
14993402 34 18335140920565548199
16945 1 18410006675827355947
193761 8 17689999354784851739
20511035 2 17908423906652818119
20588541 1 18410295813036583910
21501502 16 17905608804719394754
22802520 49 18200612340382194278
2334 1 18267021846145996050
23402539 116 18342165653448547894
23419403 2 15899456695050040203
23463225 33 18334290942416996514
23493267 7 17531534178466985930
23559900 14 18343027714352939884
2748010 2 18339363079760828822
353137 74 18265052436015476338
5255222 1 17760652468931793812
528886 8 18410569595763725914
53812653 166 18341608282298779035
589210 1 17691684914684173840

> <PUBCHEM_SHAPE_MULTIPOLES>
268.5
3.9
2.69
0.75
0.06
0.28
-0.05
-0.07
-0.14
0.12
0.08
-0.11
-0.29
0.16

> <PUBCHEM_SHAPE_SELFOVERLAP>
580.569

> <PUBCHEM_SHAPE_VOLUME>
146.4

> <PUBCHEM_COORDINATE_TYPE>
2
5
10

$$$$
