585744
  -OEChem-09182011553D

 40 43  0     1  0  0  0  0  0999 V2000
   -3.1533   -1.3451    1.0266 O   0  0  0  0  0  0  0  0  0  0  0  0
   -0.6612    0.9103   -0.3967 C   0  0  1  0  0  0  0  0  0  0  0  0
   -1.1717   -0.5399   -0.1550 C   0  0  1  0  0  0  0  0  0  0  0  0
    0.8778    1.0794   -0.4126 C   0  0  2  0  0  0  0  0  0  0  0  0
    1.6757   -0.1685   -0.8799 C   0  0  1  0  0  0  0  0  0  0  0  0
   -1.1968    0.8427   -1.8523 C   0  0  0  0  0  0  0  0  0  0  0  0
   -1.9032   -0.4814   -1.5353 C   0  0  0  0  0  0  0  0  0  0  0  0
    2.6021    0.0367    0.3445 C   0  0  0  0  0  0  0  0  0  0  0  0
   -1.4334    1.8347    0.5550 C   0  0  0  0  0  0  0  0  0  0  0  0
    1.5172    0.9138    0.9853 C   0  0  0  0  0  0  0  0  0  0  0  0
   -0.1553   -1.6720   -0.0068 C   0  0  0  0  0  0  0  0  0  0  0  0
   -2.0951   -0.4027    1.0715 C   0  0  1  0  0  0  0  0  0  0  0  0
    0.9818   -1.5220   -1.0072 C   0  0  0  0  0  0  0  0  0  0  0  0
   -2.6391    1.0194    0.9956 C   0  0  0  0  0  0  0  0  0  0  0  0
    2.8318   -1.2521    1.1146 C   0  0  0  0  0  0  0  0  0  0  0  0
    3.9226    0.7468    0.1528 C   0  0  0  0  0  0  0  0  0  0  0  0
    1.2032    2.0050   -0.9064 H   0  0  0  0  0  0  0  0  0  0  0  0
    2.2075    0.0204   -1.8242 H   0  0  0  0  0  0  0  0  0  0  0  0
   -0.4336    0.7461   -2.6331 H   0  0  0  0  0  0  0  0  0  0  0  0
   -1.8683    1.6567   -2.1446 H   0  0  0  0  0  0  0  0  0  0  0  0
   -2.9944   -0.3935   -1.4884 H   0  0  0  0  0  0  0  0  0  0  0  0
   -1.6776   -1.2922   -2.2352 H   0  0  0  0  0  0  0  0  0  0  0  0
   -1.7252    2.7750    0.0770 H   0  0  0  0  0  0  0  0  0  0  0  0
   -0.8347    2.0872    1.4369 H   0  0  0  0  0  0  0  0  0  0  0  0
    1.8635    1.8509    1.4353 H   0  0  0  0  0  0  0  0  0  0  0  0
    0.8981    0.4070    1.7338 H   0  0  0  0  0  0  0  0  0  0  0  0
   -0.6565   -2.6314   -0.1887 H   0  0  0  0  0  0  0  0  0  0  0  0
    0.1771   -1.7196    1.0265 H   0  0  0  0  0  0  0  0  0  0  0  0
   -1.5361   -0.5409    2.0048 H   0  0  0  0  0  0  0  0  0  0  0  0
    1.6874   -2.3548   -0.9253 H   0  0  0  0  0  0  0  0  0  0  0  0
    0.5767   -1.6043   -2.0232 H   0  0  0  0  0  0  0  0  0  0  0  0
   -3.0450    1.3572    1.9544 H   0  0  0  0  0  0  0  0  0  0  0  0
   -3.4530    1.0956    0.2650 H   0  0  0  0  0  0  0  0  0  0  0  0
    1.9591   -1.7134    1.5642 H   0  0  0  0  0  0  0  0  0  0  0  0
    3.3515   -1.9979    0.5026 H   0  0  0  0  0  0  0  0  0  0  0  0
    3.4927   -1.0571    1.9704 H   0  0  0  0  0  0  0  0  0  0  0  0
    4.6261    0.1253   -0.4123 H   0  0  0  0  0  0  0  0  0  0  0  0
    3.7983    1.6823   -0.4041 H   0  0  0  0  0  0  0  0  0  0  0  0
    4.3896    0.9979    1.1116 H   0  0  0  0  0  0  0  0  0  0  0  0
   -3.7465   -1.1534    1.7728 H   0  0  0  0  0  0  0  0  0  0  0  0
  1 12  1  0  0  0  0
  1 40  1  0  0  0  0
  2  3  1  0  0  0  0
  2  4  1  0  0  0  0
  2  6  1  0  0  0  0
  2  9  1  0  0  0  0
  3  7  1  0  0  0  0
  3 11  1  0  0  0  0
  3 12  1  0  0  0  0
  4  5  1  0  0  0  0
  4 10  1  0  0  0  0
  4 17  1  0  0  0  0
  5  8  1  0  0  0  0
  5 13  1  0  0  0  0
  5 18  1  0  0  0  0
  6  7  1  0  0  0  0
  6 19  1  0  0  0  0
  6 20  1  0  0  0  0
  7 21  1  0  0  0  0
  7 22  1  0  0  0  0
  8 10  1  0  0  0  0
  8 15  1  0  0  0  0
  8 16  1  0  0  0  0
  9 14  1  0  0  0  0
  9 23  1  0  0  0  0
  9 24  1  0  0  0  0
 10 25  1  0  0  0  0
 10 26  1  0  0  0  0
 11 13  1  0  0  0  0
 11 27  1  0  0  0  0
 11 28  1  0  0  0  0
 12 14  1  0  0  0  0
 12 29  1  0  0  0  0
 13 30  1  0  0  0  0
 13 31  1  0  0  0  0
 14 32  1  0  0  0  0
 14 33  1  0  0  0  0
 15 34  1  0  0  0  0
 15 35  1  0  0  0  0
 15 36  1  0  0  0  0
 16 37  1  0  0  0  0
 16 38  1  0  0  0  0
 16 39  1  0  0  0  0
M  END
> <PUBCHEM_COMPOUND_CID>
585744

> <PUBCHEM_CONFORMER_RMSD>
0.6

> <PUBCHEM_CONFORMER_DIVERSEORDER>
5
1
9
8
7
3
6
2
4

> <PUBCHEM_MMFF94_PARTIAL_CHARGES>
3
1 -0.68
12 0.28
40 0.4

> <PUBCHEM_EFFECTIVE_ROTOR_COUNT>
1.8

> <PUBCHEM_PHARMACOPHORE_FEATURES>
6
1 1 acceptor
1 1 donor
3 8 15 16 hydrophobe
4 4 5 8 10 rings
6 2 3 4 5 11 13 rings
7 2 3 6 7 9 12 14 rings

> <PUBCHEM_HEAVY_ATOM_COUNT>
16

> <PUBCHEM_ATOM_DEF_STEREO_COUNT>
0

> <PUBCHEM_ATOM_UDEF_STEREO_COUNT>
5

> <PUBCHEM_BOND_DEF_STEREO_COUNT>
0

> <PUBCHEM_BOND_UDEF_STEREO_COUNT>
0

> <PUBCHEM_ISOTOPIC_ATOM_COUNT>
0

> <PUBCHEM_COMPONENT_COUNT>
1

> <PUBCHEM_CACTVS_TAUTO_COUNT>
1

> <PUBCHEM_CONFORMER_ID>
0008F01000000005

> <PUBCHEM_MMFF94_ENERGY>
58.7421

> <PUBCHEM_FEATURE_SELFOVERLAP>
31.21

> <PUBCHEM_SHAPE_FINGERPRINT>
10863032 1 18337678516045480224
10948715 1 17632303311119931993
12138202 97 16589127360858897191
12251169 10 18335991955381653506
12382932 28 18341338794538861769
12423570 1 11209452222678430228
12491281 212 15338843044855163146
12696612 119 18410863152636225988
12932764 1 16917344831776713050
13024252 1 13912315768373853413
13172582 1 18410574006832061540
13214271 11 18342741822984180409
13296908 3 17095796634285387458
13571099 52 16844995832787175794
144361 1 18120060992822124798
14817 1 12852127169053866749
15309172 13 18272086123725816702
15775835 57 17418096498651215577
15852999 172 17824801374588996799
16945 1 17703789219182767261
19010151 120 17559088051823620861
19837323 101 13614524069155792335
200 152 18339909515554311359
20361792 2 16443642275768073899
20511035 2 17554906372605933949
20525323 117 18131625681972017263
23236772 104 17489294304761136053
23419403 2 14534573550806534174
2748010 2 18056770827231646732
296302 2 17095243652386817589
369184 2 18040426659883375972
430814 3 16343434924716580087
5084963 1 17967530185786640970

> <PUBCHEM_SHAPE_MULTIPOLES>
323.4
4.71
1.71
1.46
2.43
0.1
0.31
-0.24
-1.48
-0.25
-0.15
-0.64
0.11
-0.03

> <PUBCHEM_SHAPE_SELFOVERLAP>
706.529

> <PUBCHEM_SHAPE_VOLUME>
179.7

> <PUBCHEM_COORDINATE_TYPE>
2
5
10

$$$$
