12313900
  -OEChem-09182010463D

 37 39  0     1  0  0  0  0  0999 V2000
   -0.2066    0.6853    0.1529 O   0  0  0  0  0  0  0  0  0  0  0  0
    1.0271   -2.7759   -0.1012 O   0  0  0  0  0  0  0  0  0  0  0  0
   -1.6475   -3.1538   -0.0119 O   0  0  0  0  0  0  0  0  0  0  0  0
   -4.0772   -2.2401   -0.1220 O   0  0  0  0  0  0  0  0  0  0  0  0
   -4.5859    2.4785   -0.0793 O   0  0  0  0  0  0  0  0  0  0  0  0
    5.1250    0.6580   -1.9009 O   0  0  0  0  0  0  0  0  0  0  0  0
    6.0014    1.0431    0.7080 O   0  0  0  0  0  0  0  0  0  0  0  0
    0.6165   -0.4018   -0.2992 C   0  0  2  0  0  0  0  0  0  0  0  0
    0.2416   -1.7090    0.4012 C   0  0  1  0  0  0  0  0  0  0  0  0
    2.0590   -0.0148   -0.0328 C   0  0  0  0  0  0  0  0  0  0  0  0
   -1.2115   -2.0153    0.1115 C   0  0  0  0  0  0  0  0  0  0  0  0
   -2.1038   -0.8430    0.0204 C   0  0  0  0  0  0  0  0  0  0  0  0
   -1.5505    0.4389    0.0629 C   0  0  0  0  0  0  0  0  0  0  0  0
   -3.4874   -1.0127   -0.0777 C   0  0  0  0  0  0  0  0  0  0  0  0
   -2.3886    1.5550    0.0422 C   0  0  0  0  0  0  0  0  0  0  0  0
    2.9423    0.1465   -1.0980 C   0  0  0  0  0  0  0  0  0  0  0  0
    2.4958    0.1774    1.2762 C   0  0  0  0  0  0  0  0  0  0  0  0
   -3.7706    1.3886   -0.0517 C   0  0  0  0  0  0  0  0  0  0  0  0
   -4.3183    0.1073   -0.1163 C   0  0  0  0  0  0  0  0  0  0  0  0
    4.2688    0.5017   -0.8531 C   0  0  0  0  0  0  0  0  0  0  0  0
    3.8221    0.5325    1.5211 C   0  0  0  0  0  0  0  0  0  0  0  0
    4.7087    0.6948    0.4565 C   0  0  0  0  0  0  0  0  0  0  0  0
   -3.9604    3.7588   -0.0088 C   0  0  0  0  0  0  0  0  0  0  0  0
    0.4773   -0.5055   -1.3856 H   0  0  0  0  0  0  0  0  0  0  0  0
    0.3564   -1.6558    1.4899 H   0  0  0  0  0  0  0  0  0  0  0  0
   -1.9070    2.5262    0.0933 H   0  0  0  0  0  0  0  0  0  0  0  0
    2.6081   -0.0021   -2.1218 H   0  0  0  0  0  0  0  0  0  0  0  0
    1.8179    0.0666    2.1179 H   0  0  0  0  0  0  0  0  0  0  0  0
    0.8123   -3.5687    0.4195 H   0  0  0  0  0  0  0  0  0  0  0  0
   -5.3962   -0.0168   -0.1886 H   0  0  0  0  0  0  0  0  0  0  0  0
    4.1510    0.6825    2.5460 H   0  0  0  0  0  0  0  0  0  0  0  0
   -3.4093   -2.9416   -0.0901 H   0  0  0  0  0  0  0  0  0  0  0  0
    5.9981    0.9037   -1.5486 H   0  0  0  0  0  0  0  0  0  0  0  0
    6.1239    1.1334    1.6687 H   0  0  0  0  0  0  0  0  0  0  0  0
   -3.3147    3.9399   -0.8749 H   0  0  0  0  0  0  0  0  0  0  0  0
   -3.4317    3.8971    0.9404 H   0  0  0  0  0  0  0  0  0  0  0  0
   -4.7569    4.5095   -0.0425 H   0  0  0  0  0  0  0  0  0  0  0  0
  1  8  1  0  0  0  0
  1 13  1  0  0  0  0
  2  9  1  0  0  0  0
  2 29  1  0  0  0  0
  3 11  2  0  0  0  0
  4 14  1  0  0  0  0
  4 32  1  0  0  0  0
  5 18  1  0  0  0  0
  5 23  1  0  0  0  0
  6 20  1  0  0  0  0
  6 33  1  0  0  0  0
  7 22  1  0  0  0  0
  7 34  1  0  0  0  0
  8  9  1  0  0  0  0
  8 10  1  0  0  0  0
  8 24  1  0  0  0  0
  9 11  1  0  0  0  0
  9 25  1  0  0  0  0
 10 16  2  0  0  0  0
 10 17  1  0  0  0  0
 11 12  1  0  0  0  0
 12 13  1  0  0  0  0
 12 14  2  0  0  0  0
 13 15  2  0  0  0  0
 14 19  1  0  0  0  0
 15 18  1  0  0  0  0
 15 26  1  0  0  0  0
 16 20  1  0  0  0  0
 16 27  1  0  0  0  0
 17 21  2  0  0  0  0
 17 28  1  0  0  0  0
 18 19  2  0  0  0  0
 19 30  1  0  0  0  0
 20 22  2  0  0  0  0
 21 22  1  0  0  0  0
 21 31  1  0  0  0  0
 23 35  1  0  0  0  0
 23 36  1  0  0  0  0
 23 37  1  0  0  0  0
M  END
> <PUBCHEM_COMPOUND_CID>
12313900

> <PUBCHEM_CONFORMER_RMSD>
0.6

> <PUBCHEM_CONFORMER_DIVERSEORDER>
5
29
11
21
27
23
15
7
16
18
30
24
25
3
17
31
6
1
12
19
22
14
2
28
32
9
26
8
4
10
20
13

> <PUBCHEM_MMFF94_PARTIAL_CHARGES>
32
1 -0.36
10 -0.14
11 0.42
12 0.09
13 0.08
14 0.08
15 -0.15
16 -0.15
17 -0.15
18 0.08
19 -0.15
2 -0.68
20 0.08
21 -0.15
22 0.08
23 0.28
26 0.15
27 0.15
28 0.15
29 0.4
3 -0.57
30 0.15
31 0.15
32 0.45
33 0.45
34 0.45
4 -0.53
5 -0.36
6 -0.53
7 -0.53
8 0.42
9 0.34

> <PUBCHEM_EFFECTIVE_ROTOR_COUNT>
2.6

> <PUBCHEM_PHARMACOPHORE_FEATURES>
11
1 1 acceptor
1 2 acceptor
1 2 donor
1 3 acceptor
1 4 donor
1 5 acceptor
1 6 donor
1 7 donor
6 1 8 9 11 12 13 rings
6 10 16 17 20 21 22 rings
6 12 13 14 15 18 19 rings

> <PUBCHEM_HEAVY_ATOM_COUNT>
23

> <PUBCHEM_ATOM_DEF_STEREO_COUNT>
0

> <PUBCHEM_ATOM_UDEF_STEREO_COUNT>
2

> <PUBCHEM_BOND_DEF_STEREO_COUNT>
0

> <PUBCHEM_BOND_UDEF_STEREO_COUNT>
0

> <PUBCHEM_ISOTOPIC_ATOM_COUNT>
0

> <PUBCHEM_COMPONENT_COUNT>
1

> <PUBCHEM_CACTVS_TAUTO_COUNT>
469

> <PUBCHEM_CONFORMER_ID>
00BBE52C00000005

> <PUBCHEM_MMFF94_ENERGY>
72.3404

> <PUBCHEM_FEATURE_SELFOVERLAP>
55.863

> <PUBCHEM_SHAPE_FINGERPRINT>
10319926 262 18269814533224812082
10411042 1 17762053642126139147
10498660 4 18341895151728448856
10615611 76 17531547445695271476
10646746 165 18413384341425535376
10670039 82 18335145263062613732
11796584 16 18341901771417822718
12107183 9 18046330947668492258
12173636 292 18339355276095058399
12236239 1 17749101236489290258
12390115 104 18271537398957489009
12403259 415 18131073753099927808
12403814 3 17385435523339377637
12596602 18 16950568817409119361
12788726 201 17535199065830340658
12916748 109 18338239370397849666
13140716 1 17975698604131242203
13540713 5 18194945376212274315
13965767 371 17897159117968788756
14251764 75 17839186208460732433
15042514 8 18121220041730585523
15196674 1 18410854330562708803
16752209 62 18337670927023248082
16988056 13 15739636675557754493
17844677 252 18340208595792099712
18186145 218 17846502529933189482
20510252 161 18343865537047861035
20645477 70 16558763308334447134
21033648 29 17632284701274584640
21033650 10 18263949725016756308
21065201 7 18343020029854886194
21279426 13 18200035028163350870
22122407 14 15936411139236454693
22182313 1 18268733669828810335
23366157 5 17970064435619834442
23402539 116 18340479066735219142
23557571 272 18201438133759747608
23559900 14 18272375226891363054
25147074 1 18263344929128911363
283562 15 18411696608906030683
2916195 48 18201991175382061192
341906 21 18410005546583584936
350125 39 18409732885349400369
38570 142 16807041877356020540
4028521 119 18131632266141239681
469060 322 18264791972625381649
474 4 17822013077414611891
495365 180 17560791092541004846
5104073 3 18191028907061173497
5265222 85 18268998756075034606
7064713 232 18334011662036907020
7808743 9 18409446955821801273
9849439 229 18049441440452687985
9862522 239 17750500807022037701
9981440 41 18334577932179474499

> <PUBCHEM_SHAPE_MULTIPOLES>
432.24
11.23
2.99
1.03
7.59
0.04
-0.08
6.84
-0.62
-4.9
0.02
1.71
0.21
0.03

> <PUBCHEM_SHAPE_SELFOVERLAP>
955.525

> <PUBCHEM_SHAPE_VOLUME>
230.8

> <PUBCHEM_COORDINATE_TYPE>
2
5
10

$$$$
