527256
  -OEChem-09182013383D

 42 43  0     1  0  0  0  0  0999 V2000
    3.1821   -1.5912   -0.5521 O   0  0  0  0  0  0  0  0  0  0  0  0
   -1.1860    1.0983    0.1440 C   0  0  1  0  0  0  0  0  0  0  0  0
   -0.7929   -0.3826    0.0263 C   0  0  0  0  0  0  0  0  0  0  0  0
   -0.1264    2.0319   -0.5087 C   0  0  0  0  0  0  0  0  0  0  0  0
   -2.5281    1.3568   -0.5909 C   0  0  0  0  0  0  0  0  0  0  0  0
    1.5874    0.2017   -0.6332 C   0  0  2  0  0  0  0  0  0  0  0  0
   -1.9004   -1.3867    0.3586 C   0  0  1  0  0  0  0  0  0  0  0  0
    1.2999    1.6292   -0.1570 C   0  0  0  0  0  0  0  0  0  0  0  0
   -3.6338    0.3682   -0.2325 C   0  0  0  0  0  0  0  0  0  0  0  0
   -3.1726   -1.0697   -0.4437 C   0  0  0  0  0  0  0  0  0  0  0  0
    0.4512   -0.7471   -0.3449 C   0  0  0  0  0  0  0  0  0  0  0  0
   -1.3229    1.4726    1.6377 C   0  0  0  0  0  0  0  0  0  0  0  0
    2.8902   -0.3031   -0.0103 C   0  0  0  0  0  0  0  0  0  0  0  0
   -1.5504   -2.8695    0.1714 C   0  0  0  0  0  0  0  0  0  0  0  0
    2.7534   -0.4314    1.5055 C   0  0  0  0  0  0  0  0  0  0  0  0
    4.0495    0.6225   -0.3703 C   0  0  0  0  0  0  0  0  0  0  0  0
   -0.2993    3.0738   -0.2103 H   0  0  0  0  0  0  0  0  0  0  0  0
   -0.2253    2.0095   -1.6029 H   0  0  0  0  0  0  0  0  0  0  0  0
   -2.3704    1.2980   -1.6769 H   0  0  0  0  0  0  0  0  0  0  0  0
   -2.8787    2.3768   -0.3879 H   0  0  0  0  0  0  0  0  0  0  0  0
    1.6988    0.2075   -1.7272 H   0  0  0  0  0  0  0  0  0  0  0  0
   -2.1347   -1.2659    1.4248 H   0  0  0  0  0  0  0  0  0  0  0  0
    1.9786    2.3330   -0.6537 H   0  0  0  0  0  0  0  0  0  0  0  0
    1.4420    1.7689    0.9168 H   0  0  0  0  0  0  0  0  0  0  0  0
   -4.5134    0.5641   -0.8569 H   0  0  0  0  0  0  0  0  0  0  0  0
   -3.9512    0.5103    0.8066 H   0  0  0  0  0  0  0  0  0  0  0  0
   -3.9826   -1.7467   -0.1455 H   0  0  0  0  0  0  0  0  0  0  0  0
   -2.9945   -1.2417   -1.5134 H   0  0  0  0  0  0  0  0  0  0  0  0
    0.6794   -1.8013   -0.4685 H   0  0  0  0  0  0  0  0  0  0  0  0
   -0.4003    1.2685    2.1922 H   0  0  0  0  0  0  0  0  0  0  0  0
   -1.5516    2.5381    1.7555 H   0  0  0  0  0  0  0  0  0  0  0  0
   -2.1225    0.9169    2.1374 H   0  0  0  0  0  0  0  0  0  0  0  0
   -2.3967   -3.5038    0.4584 H   0  0  0  0  0  0  0  0  0  0  0  0
   -1.3038   -3.0982   -0.8713 H   0  0  0  0  0  0  0  0  0  0  0  0
   -0.7033   -3.1596    0.8026 H   0  0  0  0  0  0  0  0  0  0  0  0
    3.6573   -0.8970    1.9195 H   0  0  0  0  0  0  0  0  0  0  0  0
    2.6337    0.5239    2.0222 H   0  0  0  0  0  0  0  0  0  0  0  0
    1.9340   -1.0963    1.7980 H   0  0  0  0  0  0  0  0  0  0  0  0
    4.1157    0.7666   -1.4549 H   0  0  0  0  0  0  0  0  0  0  0  0
    5.0050    0.1784   -0.0656 H   0  0  0  0  0  0  0  0  0  0  0  0
    3.9794    1.6026    0.1109 H   0  0  0  0  0  0  0  0  0  0  0  0
    4.0024   -1.9146   -0.1422 H   0  0  0  0  0  0  0  0  0  0  0  0
  1 13  1  0  0  0  0
  1 42  1  0  0  0  0
  2  3  1  0  0  0  0
  2  4  1  0  0  0  0
  2  5  1  0  0  0  0
  2 12  1  0  0  0  0
  3  7  1  0  0  0  0
  3 11  2  0  0  0  0
  4  8  1  0  0  0  0
  4 17  1  0  0  0  0
  4 18  1  0  0  0  0
  5  9  1  0  0  0  0
  5 19  1  0  0  0  0
  5 20  1  0  0  0  0
  6  8  1  0  0  0  0
  6 11  1  0  0  0  0
  6 13  1  0  0  0  0
  6 21  1  0  0  0  0
  7 10  1  0  0  0  0
  7 14  1  0  0  0  0
  7 22  1  0  0  0  0
  8 23  1  0  0  0  0
  8 24  1  0  0  0  0
  9 10  1  0  0  0  0
  9 25  1  0  0  0  0
  9 26  1  0  0  0  0
 10 27  1  0  0  0  0
 10 28  1  0  0  0  0
 11 29  1  0  0  0  0
 12 30  1  0  0  0  0
 12 31  1  0  0  0  0
 12 32  1  0  0  0  0
 13 15  1  0  0  0  0
 13 16  1  0  0  0  0
 14 33  1  0  0  0  0
 14 34  1  0  0  0  0
 14 35  1  0  0  0  0
 15 36  1  0  0  0  0
 15 37  1  0  0  0  0
 15 38  1  0  0  0  0
 16 39  1  0  0  0  0
 16 40  1  0  0  0  0
 16 41  1  0  0  0  0
M  END
> <PUBCHEM_COMPOUND_CID>
527256

> <PUBCHEM_CONFORMER_RMSD>
0.6

> <PUBCHEM_CONFORMER_DIVERSEORDER>
1
2
16
5
18
12
11
20
10
15
6
13
3
14
7
4
21
9
17
19
8

> <PUBCHEM_MMFF94_PARTIAL_CHARGES>
9
1 -0.68
11 -0.29
13 0.28
2 0.14
29 0.15
3 -0.28
42 0.4
6 0.14
7 0.14

> <PUBCHEM_EFFECTIVE_ROTOR_COUNT>
2.4

> <PUBCHEM_PHARMACOPHORE_FEATURES>
5
1 1 acceptor
1 1 donor
3 13 15 16 hydrophobe
6 2 3 4 6 8 11 rings
6 2 3 5 7 9 10 rings

> <PUBCHEM_HEAVY_ATOM_COUNT>
16

> <PUBCHEM_ATOM_DEF_STEREO_COUNT>
0

> <PUBCHEM_ATOM_UDEF_STEREO_COUNT>
3

> <PUBCHEM_BOND_DEF_STEREO_COUNT>
0

> <PUBCHEM_BOND_UDEF_STEREO_COUNT>
0

> <PUBCHEM_ISOTOPIC_ATOM_COUNT>
0

> <PUBCHEM_COMPONENT_COUNT>
1

> <PUBCHEM_CACTVS_TAUTO_COUNT>
1

> <PUBCHEM_CONFORMER_ID>
00080B9800000001

> <PUBCHEM_MMFF94_ENERGY>
37.5732

> <PUBCHEM_FEATURE_SELFOVERLAP>
25.391

> <PUBCHEM_SHAPE_FINGERPRINT>
10366900 7 17561080315358817970
10967382 1 18409449180472026519
11132069 177 18340198609570733888
11578080 2 17170639368422944916
12592029 89 17969221127828702539
13024252 1 15140968352752638293
13083527 12 16763628944195665903
13140716 1 18194688287574197171
13538477 17 18187641401719402346
14115302 16 18260837028667183733
14144814 61 18334576832472108466
14713566 1 18411135827314553251
14993402 34 18334575720001842901
15001771 113 18266469886823708409
15309172 13 18264499377245124369
15669948 3 18335978757063580478
15775835 57 18040716943806355652
16752209 62 18336537249057037959
16945 1 18409726279193476149
19786989 88 13695881311235476810
200 152 17988921184415352533
20201158 50 18341612633243087551
20510252 161 18343302526764768657
20645476 183 17313117344650384759
21267235 1 18336555992025441846
21452121 199 17760915634642308675
21501502 16 18193559093553934973
21524375 3 16911171971408706161
22802520 49 18046064024024843579
23184049 29 18119804965658933859
232386 152 18410016575795519428
2334 1 17905610252276458239
23402539 116 18342447132688343567
23419403 2 16758808569154859885
23463225 33 18334857207968827028
23552423 10 17899136297763127477
23557571 272 18130234860008694806
23559900 14 18341609296617779972
2748010 2 18122624126425577029
296302 2 18408038532971106180
3286 77 17274529911449187882
3312278 4 18338240478304259098
34934 24 18334852861641316948
427121 178 16553731826898117401
69090 78 18409726262119089095
7364860 26 18124033691716713996
74978 22 18335140933376512429
75552 356 18411983576248711175
81228 2 18341059540128736881
8809292 202 18336269045328941767
9709674 26 18413111666905892902

> <PUBCHEM_SHAPE_MULTIPOLES>
323.4
5.92
2.3
1.05
2.68
0.73
-0.44
0.84
0.54
-1.06
-0.02
0.18
-0.2
-0.12

> <PUBCHEM_SHAPE_SELFOVERLAP>
661.732

> <PUBCHEM_SHAPE_VOLUME>
187.2

> <PUBCHEM_COORDINATE_TYPE>
2
5
10

$$$$
