91746499
  -OEChem-09182013323D

 42 44  0     1  0  0  0  0  0999 V2000
   -0.3576    2.3254    1.3913 O   0  0  0  0  0  0  0  0  0  0  0  0
    0.8091    0.9086   -0.1351 C   0  0  1  0  0  0  0  0  0  0  0  0
    1.2194   -0.5182   -0.6496 C   0  0  1  0  0  0  0  0  0  0  0  0
    2.6724   -0.2163   -0.1014 C   0  0  0  0  0  0  0  0  0  0  0  0
   -0.5708    1.2895    0.4173 C   0  0  1  0  0  0  0  0  0  0  0  0
    1.9962    0.7972    0.8676 C   0  0  0  0  0  0  0  0  0  0  0  0
   -1.9199   -0.9256    0.2147 C   0  0  2  0  0  0  0  0  0  0  0  0
   -1.2838    0.1440    1.1393 C   0  0  0  0  0  0  0  0  0  0  0  0
    0.5391   -1.7653   -0.0878 C   0  0  0  0  0  0  0  0  0  0  0  0
   -0.9116   -1.8441   -0.5394 C   0  0  0  0  0  0  0  0  0  0  0  0
   -1.4742    1.8958   -0.6717 C   0  0  0  0  0  0  0  0  0  0  0  0
   -2.8304   -0.2179   -0.8194 C   0  0  0  0  0  0  0  0  0  0  0  0
   -2.0911    0.8645   -1.6051 C   0  0  0  0  0  0  0  0  0  0  0  0
    3.5951    0.4234   -1.1485 C   0  0  0  0  0  0  0  0  0  0  0  0
    3.4200   -1.3313    0.6304 C   0  0  0  0  0  0  0  0  0  0  0  0
   -2.8122   -1.8298    1.0974 C   0  0  0  0  0  0  0  0  0  0  0  0
    1.0657    1.6681   -0.8929 H   0  0  0  0  0  0  0  0  0  0  0  0
    1.1916   -0.5734   -1.7479 H   0  0  0  0  0  0  0  0  0  0  0  0
    1.7194    0.3765    1.8420 H   0  0  0  0  0  0  0  0  0  0  0  0
    2.5457    1.7269    1.0459 H   0  0  0  0  0  0  0  0  0  0  0  0
   -2.0909    0.5853    1.7445 H   0  0  0  0  0  0  0  0  0  0  0  0
   -0.6266   -0.3131    1.8884 H   0  0  0  0  0  0  0  0  0  0  0  0
    0.6089   -1.8316    1.0018 H   0  0  0  0  0  0  0  0  0  0  0  0
    1.0631   -2.6466   -0.4797 H   0  0  0  0  0  0  0  0  0  0  0  0
   -0.9516   -1.6680   -1.6210 H   0  0  0  0  0  0  0  0  0  0  0  0
   -1.2285   -2.8901   -0.4276 H   0  0  0  0  0  0  0  0  0  0  0  0
   -0.9243    2.6425   -1.2582 H   0  0  0  0  0  0  0  0  0  0  0  0
   -2.2895    2.4574   -0.1942 H   0  0  0  0  0  0  0  0  0  0  0  0
   -3.6824    0.2469   -0.3050 H   0  0  0  0  0  0  0  0  0  0  0  0
   -3.2562   -0.9486   -1.5185 H   0  0  0  0  0  0  0  0  0  0  0  0
   -1.3144    0.4263   -2.2403 H   0  0  0  0  0  0  0  0  0  0  0  0
   -2.7960    1.3635   -2.2805 H   0  0  0  0  0  0  0  0  0  0  0  0
    2.8338   -1.7574    1.4503 H   0  0  0  0  0  0  0  0  0  0  0  0
    3.6762   -2.1440   -0.0576 H   0  0  0  0  0  0  0  0  0  0  0  0
    4.3512   -0.9535    1.0673 H   0  0  0  0  0  0  0  0  0  0  0  0
    4.4987    0.8249   -0.6767 H   0  0  0  0  0  0  0  0  0  0  0  0
    3.9034   -0.3182   -1.8936 H   0  0  0  0  0  0  0  0  0  0  0  0
    3.1134    1.2466   -1.6851 H   0  0  0  0  0  0  0  0  0  0  0  0
   -2.2116   -2.3673    1.8400 H   0  0  0  0  0  0  0  0  0  0  0  0
   -3.3475   -2.5720    0.4941 H   0  0  0  0  0  0  0  0  0  0  0  0
   -3.5655   -1.2452    1.6379 H   0  0  0  0  0  0  0  0  0  0  0  0
   -1.2210    2.6017    1.7426 H   0  0  0  0  0  0  0  0  0  0  0  0
  1  5  1  0  0  0  0
  1 42  1  0  0  0  0
  2  3  1  0  0  0  0
  2  5  1  0  0  0  0
  2  6  1  0  0  0  0
  2 17  1  0  0  0  0
  3  4  1  0  0  0  0
  3  9  1  0  0  0  0
  3 18  1  0  0  0  0
  4  6  1  0  0  0  0
  4 14  1  0  0  0  0
  4 15  1  0  0  0  0
  5  8  1  0  0  0  0
  5 11  1  0  0  0  0
  6 19  1  0  0  0  0
  6 20  1  0  0  0  0
  7  8  1  0  0  0  0
  7 10  1  0  0  0  0
  7 12  1  0  0  0  0
  7 16  1  0  0  0  0
  8 21  1  0  0  0  0
  8 22  1  0  0  0  0
  9 10  1  0  0  0  0
  9 23  1  0  0  0  0
  9 24  1  0  0  0  0
 10 25  1  0  0  0  0
 10 26  1  0  0  0  0
 11 13  1  0  0  0  0
 11 27  1  0  0  0  0
 11 28  1  0  0  0  0
 12 13  1  0  0  0  0
 12 29  1  0  0  0  0
 12 30  1  0  0  0  0
 13 31  1  0  0  0  0
 13 32  1  0  0  0  0
 14 36  1  0  0  0  0
 14 37  1  0  0  0  0
 14 38  1  0  0  0  0
 15 33  1  0  0  0  0
 15 34  1  0  0  0  0
 15 35  1  0  0  0  0
 16 39  1  0  0  0  0
 16 40  1  0  0  0  0
 16 41  1  0  0  0  0
M  END
> <PUBCHEM_COMPOUND_CID>
91746499

> <PUBCHEM_CONFORMER_RMSD>
0.6

> <PUBCHEM_CONFORMER_DIVERSEORDER>
1
2

> <PUBCHEM_MMFF94_PARTIAL_CHARGES>
3
1 -0.68
42 0.4
5 0.28

> <PUBCHEM_EFFECTIVE_ROTOR_COUNT>
1.6

> <PUBCHEM_PHARMACOPHORE_FEATURES>
6
1 1 acceptor
1 1 donor
3 4 14 15 hydrophobe
4 2 3 4 6 rings
6 5 7 8 11 12 13 rings
7 2 3 5 7 8 9 10 rings

> <PUBCHEM_HEAVY_ATOM_COUNT>
16

> <PUBCHEM_ATOM_DEF_STEREO_COUNT>
2

> <PUBCHEM_ATOM_UDEF_STEREO_COUNT>
2

> <PUBCHEM_BOND_DEF_STEREO_COUNT>
0

> <PUBCHEM_BOND_UDEF_STEREO_COUNT>
0

> <PUBCHEM_ISOTOPIC_ATOM_COUNT>
0

> <PUBCHEM_COMPONENT_COUNT>
1

> <PUBCHEM_CACTVS_TAUTO_COUNT>
1

> <PUBCHEM_CONFORMER_ID>
0577F0C300000001

> <PUBCHEM_MMFF94_ENERGY>
56.7382

> <PUBCHEM_FEATURE_SELFOVERLAP>
31.19

> <PUBCHEM_SHAPE_FINGERPRINT>
10863032 1 17603300457753009063
10948715 1 17169541913994442765
11132069 177 18058165201628924946
11206711 2 18413389813082164276
12138202 97 17895182256470768375
12423570 1 17326035752073899345
12491281 212 15502652659369399700
13024252 1 14057010407730772317
13027679 85 18199474440130803257
13172582 1 18200321042488008947
13299463 15 18409443661518120589
13380535 76 18122055408331129143
144361 1 18188483579996562097
14614273 12 18263365802294929965
14817 1 16742490691607499701
15279308 128 18342730815130641925
15490181 8 17980205179838223342
15775835 57 18334863805054456902
15852999 172 18046329843291969951
15906896 17 17772202907433309777
16945 1 18187072945406898021
17844478 74 18189060939686743203
18534176 82 18113612383243175527
19010151 120 17274239726046666573
20201158 50 18412255117156113359
20525323 117 18130787793939853282
20645476 183 17386552549717185771
21061003 4 18201165458980908041
21501502 16 18263079924892364158
22721475 48 18411702101403869389
22802520 49 18187074100763754109
2334 1 17838612610786680134
23419403 2 16051196974679150123
23493267 7 18040150691028371667
23559900 14 18339627942531714354
25 1 18049991200233826973
2748010 2 18197207268402006932
353137 74 18122894344398662197
81228 2 17987241023364184112

> <PUBCHEM_SHAPE_MULTIPOLES>
323.4
4.89
2.17
1.31
2.99
0.02
0.02
-1.19
-0.61
-0.85
0.33
-0.32
0.33
0.31

> <PUBCHEM_SHAPE_SELFOVERLAP>
674.432

> <PUBCHEM_SHAPE_VOLUME>
184.3

> <PUBCHEM_COORDINATE_TYPE>
2
5
10

$$$$
