11256019
  -OEChem-09182010463D

 40 42  0     1  0  0  0  0  0999 V2000
   -0.3744    0.7434   -0.0901 O   0  0  0  0  0  0  0  0  0  0  0  0
    0.8078   -2.7429   -0.1955 O   0  0  0  0  0  0  0  0  0  0  0  0
   -1.8487   -3.0772    0.1764 O   0  0  0  0  0  0  0  0  0  0  0  0
   -4.2726   -2.1427    0.2081 O   0  0  0  0  0  0  0  0  0  0  0  0
   -4.7459    2.5711   -0.0713 O   0  0  0  0  0  0  0  0  0  0  0  0
    5.8621    1.0607   -0.1613 O   0  0  0  0  0  0  0  0  0  0  0  0
    4.2978    0.9192    2.1314 O   0  0  0  0  0  0  0  0  0  0  0  0
    0.3964   -0.3850   -0.5321 C   0  0  2  0  0  0  0  0  0  0  0  0
    0.0802   -1.6312    0.2966 C   0  0  1  0  0  0  0  0  0  0  0  0
    1.8596    0.0024   -0.4295 C   0  0  0  0  0  0  0  0  0  0  0  0
   -1.3958   -1.9387    0.1681 C   0  0  0  0  0  0  0  0  0  0  0  0
   -2.2853   -0.7650    0.0673 C   0  0  0  0  0  0  0  0  0  0  0  0
   -1.7226    0.5089   -0.0396 C   0  0  0  0  0  0  0  0  0  0  0  0
   -3.6733   -0.9233    0.1070 C   0  0  0  0  0  0  0  0  0  0  0  0
    2.4167    0.2870    0.8155 C   0  0  0  0  0  0  0  0  0  0  0  0
    2.6417    0.0729   -1.5806 C   0  0  0  0  0  0  0  0  0  0  0  0
   -2.5521    1.6311   -0.0720 C   0  0  0  0  0  0  0  0  0  0  0  0
   -3.9380    1.4763   -0.0286 C   0  0  0  0  0  0  0  0  0  0  0  0
   -4.4972    0.2013    0.0560 C   0  0  0  0  0  0  0  0  0  0  0  0
    3.7620    0.6437    0.9099 C   0  0  0  0  0  0  0  0  0  0  0  0
    3.9867    0.4296   -1.4862 C   0  0  0  0  0  0  0  0  0  0  0  0
    4.5469    0.7148   -0.2411 C   0  0  0  0  0  0  0  0  0  0  0  0
   -6.1531    2.3416   -0.0231 C   0  0  0  0  0  0  0  0  0  0  0  0
    6.8013    0.0019    0.0148 C   0  0  0  0  0  0  0  0  0  0  0  0
    0.1571   -0.5679   -1.5903 H   0  0  0  0  0  0  0  0  0  0  0  0
    0.2973   -1.4990    1.3627 H   0  0  0  0  0  0  0  0  0  0  0  0
    1.8135    0.2457    1.7188 H   0  0  0  0  0  0  0  0  0  0  0  0
    2.2197   -0.1465   -2.5574 H   0  0  0  0  0  0  0  0  0  0  0  0
   -2.1208    2.6269   -0.1410 H   0  0  0  0  0  0  0  0  0  0  0  0
    0.6379   -3.4919    0.4011 H   0  0  0  0  0  0  0  0  0  0  0  0
   -5.5667    0.0205    0.0922 H   0  0  0  0  0  0  0  0  0  0  0  0
    4.5922    0.4836   -2.3869 H   0  0  0  0  0  0  0  0  0  0  0  0
   -3.6091   -2.8488    0.2317 H   0  0  0  0  0  0  0  0  0  0  0  0
    5.2252    1.1856    2.0093 H   0  0  0  0  0  0  0  0  0  0  0  0
   -6.4534    1.8767    0.9221 H   0  0  0  0  0  0  0  0  0  0  0  0
   -6.4989    1.7745   -0.8940 H   0  0  0  0  0  0  0  0  0  0  0  0
   -6.6415    3.3207   -0.0660 H   0  0  0  0  0  0  0  0  0  0  0  0
    7.7995    0.4401    0.0997 H   0  0  0  0  0  0  0  0  0  0  0  0
    6.7859   -0.6691   -0.8499 H   0  0  0  0  0  0  0  0  0  0  0  0
    6.5870   -0.5601    0.9293 H   0  0  0  0  0  0  0  0  0  0  0  0
  1  8  1  0  0  0  0
  1 13  1  0  0  0  0
  2  9  1  0  0  0  0
  2 30  1  0  0  0  0
  3 11  2  0  0  0  0
  4 14  1  0  0  0  0
  4 33  1  0  0  0  0
  5 18  1  0  0  0  0
  5 23  1  0  0  0  0
  6 22  1  0  0  0  0
  6 24  1  0  0  0  0
  7 20  1  0  0  0  0
  7 34  1  0  0  0  0
  8  9  1  0  0  0  0
  8 10  1  0  0  0  0
  8 25  1  0  0  0  0
  9 11  1  0  0  0  0
  9 26  1  0  0  0  0
 10 15  2  0  0  0  0
 10 16  1  0  0  0  0
 11 12  1  0  0  0  0
 12 13  1  0  0  0  0
 12 14  2  0  0  0  0
 13 17  2  0  0  0  0
 14 19  1  0  0  0  0
 15 20  1  0  0  0  0
 15 27  1  0  0  0  0
 16 21  2  0  0  0  0
 16 28  1  0  0  0  0
 17 18  1  0  0  0  0
 17 29  1  0  0  0  0
 18 19  2  0  0  0  0
 19 31  1  0  0  0  0
 20 22  2  0  0  0  0
 21 22  1  0  0  0  0
 21 32  1  0  0  0  0
 23 35  1  0  0  0  0
 23 36  1  0  0  0  0
 23 37  1  0  0  0  0
 24 38  1  0  0  0  0
 24 39  1  0  0  0  0
 24 40  1  0  0  0  0
M  END
> <PUBCHEM_COMPOUND_CID>
11256019

> <PUBCHEM_CONFORMER_RMSD>
0.6

> <PUBCHEM_CONFORMER_DIVERSEORDER>
5
18
9
30
37
8
11
26
14
16
33
1
4
34
32
15
6
19
2
12
23
17
27
7
31
35
10
24
20
21
13
28
36
3
25
22
29

> <PUBCHEM_MMFF94_PARTIAL_CHARGES>
32
1 -0.36
10 -0.14
11 0.42
12 0.09
13 0.08
14 0.08
15 -0.15
16 -0.15
17 -0.15
18 0.08
19 -0.15
2 -0.68
20 0.08
21 -0.15
22 0.08
23 0.28
24 0.28
27 0.15
28 0.15
29 0.15
3 -0.57
30 0.4
31 0.15
32 0.15
33 0.45
34 0.45
4 -0.53
5 -0.36
6 -0.36
7 -0.53
8 0.42
9 0.34

> <PUBCHEM_EFFECTIVE_ROTOR_COUNT>
3.6

> <PUBCHEM_PHARMACOPHORE_FEATURES>
11
1 1 acceptor
1 2 acceptor
1 2 donor
1 3 acceptor
1 4 donor
1 5 acceptor
1 6 acceptor
1 7 donor
6 1 8 9 11 12 13 rings
6 10 15 16 20 21 22 rings
6 12 13 14 17 18 19 rings

> <PUBCHEM_HEAVY_ATOM_COUNT>
24

> <PUBCHEM_ATOM_DEF_STEREO_COUNT>
0

> <PUBCHEM_ATOM_UDEF_STEREO_COUNT>
2

> <PUBCHEM_BOND_DEF_STEREO_COUNT>
0

> <PUBCHEM_BOND_UDEF_STEREO_COUNT>
0

> <PUBCHEM_ISOTOPIC_ATOM_COUNT>
0

> <PUBCHEM_COMPONENT_COUNT>
1

> <PUBCHEM_CACTVS_TAUTO_COUNT>
183

> <PUBCHEM_CONFORMER_ID>
00ABC0D300000005

> <PUBCHEM_MMFF94_ENERGY>
86.4325

> <PUBCHEM_FEATURE_SELFOVERLAP>
55.86

> <PUBCHEM_SHAPE_FINGERPRINT>
10 15 18041287595412001849
10319926 262 18341035403077191650
10411042 1 17761496185668036987
10493431 412 18336834091975476813
10498660 4 18341618092146780521
10646746 165 18413107273000815762
11315181 36 17968377952433489924
11796584 16 18413111659101993566
12107183 9 18116985582049299010
12236239 1 17676487285204155556
12390115 104 18270694090766138329
12403259 415 18131349751935359456
12403814 3 17312818282336128141
12596602 18 17241332502837461720
12616971 3 17022629688427888580
12788726 201 17318190658947541450
13140716 1 17903644321671406963
13402501 40 18060133254376147912
13540713 4 18265632995994765867
13583140 156 17846217804225768686
14341114 328 17530962483970888001
15042514 8 18120378923840901419
15196674 1 18409731733585956559
17980427 23 17895199930298141173
1813 80 16660636316439253870
19489759 90 18411418435856661645
20554085 129 18129082464253223320
20645477 70 16773531996787979118
21033648 29 18059845208230940520
21065201 7 18341054111606975338
21236236 1 18411419535811492135
21279426 13 18270972236974623502
212916 134 18410846659750780520
21792961 116 17703524246784139668
22149856 69 18046936818058712769
22182313 1 18267891444238393063
23366157 5 17896885352479869690
23402539 116 18412823607749209028
23557571 272 18272094941161663692
23559900 14 18342465794416183846
25147074 1 18263066765614242339
2916195 48 18201434818024019432
34934 24 18339640045485803629
350125 39 18119532033297997214
3545911 37 18341334409625373461
469060 322 18264230135084171307
495365 180 17774433893882762902
5104073 3 18190188893220787995
513202 73 16299774353734671970
5265222 85 18196384834970702966
5385378 56 18265056829650975883
59755656 215 18340492149807054590
59755656 520 18409161091293192095
7064713 232 18334012774517709229
7226269 152 18273217491068213176
7808743 9 18408322168543434409
9981440 41 18333740117256868915

> <PUBCHEM_SHAPE_MULTIPOLES>
452.82
13.64
2.48
1.05
6.73
1.24
-0.09
-8.06
-0.63
-3.97
-0.13
1.58
-0.22
0.43

> <PUBCHEM_SHAPE_SELFOVERLAP>
993.664

> <PUBCHEM_SHAPE_VOLUME>
244.3

> <PUBCHEM_COORDINATE_TYPE>
2
5
10

$$$$
