534683
  -OEChem-09182014382D

 40 43  0     1  0  0  0  0  0999 V2000
    2.0000    0.0212    0.0000 O   0  0  0  0  0  0  0  0  0  0  0  0
    3.8570   -0.7073    0.0000 C   0  0  3  0  0  0  0  0  0  0  0  0
    4.7580   -0.2734    0.0000 C   0  0  3  0  0  0  0  0  0  0  0  0
    2.9561   -0.2734    0.0000 C   0  0  3  0  0  0  0  0  0  0  0  0
    4.3570    1.4834    0.0000 C   0  0  3  0  0  0  0  0  0  0  0  0
    4.9805    0.7015    0.0000 C   0  0  0  0  0  0  0  0  0  0  0  0
    3.7502    0.4695    0.0000 C   0  0  0  0  0  0  0  0  0  0  0  0
    2.7336    0.7015    0.0000 C   0  0  3  0  0  0  0  0  0  0  0  0
    3.3570    1.4834    0.0000 C   0  0  3  0  0  0  0  0  0  0  0  0
    3.9930   -1.6920    0.0000 C   0  0  3  0  0  0  0  0  0  0  0  0
    5.4431   -0.9937    0.0000 C   0  0  0  0  0  0  0  0  0  0  0  0
    4.9713   -1.8687    0.0000 C   0  0  0  0  0  0  0  0  0  0  0  0
    5.6385    1.4546    0.0000 C   0  0  0  0  0  0  0  0  0  0  0  0
    5.9001    0.3085    0.0000 C   0  0  0  0  0  0  0  0  0  0  0  0
    2.9232    2.3843    0.0000 C   0  0  0  0  0  0  0  0  0  0  0  0
    3.2714   -2.3843    0.0000 C   0  0  0  0  0  0  0  0  0  0  0  0
    5.3559   -0.1092    0.0000 H   0  0  0  0  0  0  0  0  0  0  0  0
    2.7296   -0.8506    0.0000 H   0  0  0  0  0  0  0  0  0  0  0  0
    4.6260    2.0420    0.0000 H   0  0  0  0  0  0  0  0  0  0  0  0
    3.3424    0.9365    0.0000 H   0  0  0  0  0  0  0  0  0  0  0  0
    3.1801    0.2257    0.0000 H   0  0  0  0  0  0  0  0  0  0  0  0
    2.2791    1.1233    0.0000 H   0  0  0  0  0  0  0  0  0  0  0  0
    3.6869    2.0083    0.0000 H   0  0  0  0  0  0  0  0  0  0  0  0
    3.4074   -1.4885    0.0000 H   0  0  0  0  0  0  0  0  0  0  0  0
    5.9549   -1.3437    0.0000 H   0  0  0  0  0  0  0  0  0  0  0  0
    5.8450   -0.5216    0.0000 H   0  0  0  0  0  0  0  0  0  0  0  0
    4.7976   -2.4638    0.0000 H   0  0  0  0  0  0  0  0  0  0  0  0
    5.5449   -2.1040    0.0000 H   0  0  0  0  0  0  0  0  0  0  0  0
    6.1054    1.0467    0.0000 H   0  0  0  0  0  0  0  0  0  0  0  0
    6.0464    1.9215    0.0000 H   0  0  0  0  0  0  0  0  0  0  0  0
    5.1716    1.8625    0.0000 H   0  0  0  0  0  0  0  0  0  0  0  0
    5.6564   -0.2616    0.0000 H   0  0  0  0  0  0  0  0  0  0  0  0
    6.4702    0.0648    0.0000 H   0  0  0  0  0  0  0  0  0  0  0  0
    6.1437    0.8786    0.0000 H   0  0  0  0  0  0  0  0  0  0  0  0
    3.4818    2.6533    0.0000 H   0  0  0  0  0  0  0  0  0  0  0  0
    2.6542    2.9429    0.0000 H   0  0  0  0  0  0  0  0  0  0  0  0
    2.3646    2.1153    0.0000 H   0  0  0  0  0  0  0  0  0  0  0  0
    2.8422   -1.9369    0.0000 H   0  0  0  0  0  0  0  0  0  0  0  0
    2.8240   -2.8136    0.0000 H   0  0  0  0  0  0  0  0  0  0  0  0
    3.7007   -2.8317    0.0000 H   0  0  0  0  0  0  0  0  0  0  0  0
  1  4  1  0  0  0  0
  1  8  1  0  0  0  0
  2  3  1  0  0  0  0
  2  4  1  0  0  0  0
  2  7  1  0  0  0  0
  2 10  1  0  0  0  0
  3  6  1  0  0  0  0
  3 11  1  0  0  0  0
  3 17  1  0  0  0  0
  4  8  1  0  0  0  0
  4 18  1  0  0  0  0
  5  6  1  0  0  0  0
  5  7  1  0  0  0  0
  5  9  1  0  0  0  0
  5 19  1  0  0  0  0
  6 13  1  0  0  0  0
  6 14  1  0  0  0  0
  7 20  1  0  0  0  0
  7 21  1  0  0  0  0
  8  9  1  0  0  0  0
  8 22  1  0  0  0  0
  9 15  1  0  0  0  0
  9 23  1  0  0  0  0
 10 12  1  0  0  0  0
 10 16  1  0  0  0  0
 10 24  1  0  0  0  0
 11 12  1  0  0  0  0
 11 25  1  0  0  0  0
 11 26  1  0  0  0  0
 12 27  1  0  0  0  0
 12 28  1  0  0  0  0
 13 29  1  0  0  0  0
 13 30  1  0  0  0  0
 13 31  1  0  0  0  0
 14 32  1  0  0  0  0
 14 33  1  0  0  0  0
 14 34  1  0  0  0  0
 15 35  1  0  0  0  0
 15 36  1  0  0  0  0
 15 37  1  0  0  0  0
 16 38  1  0  0  0  0
 16 39  1  0  0  0  0
 16 40  1  0  0  0  0
M  END
> <PUBCHEM_COMPOUND_CID>
534683

> <PUBCHEM_COMPOUND_CANONICALIZED>
1

> <PUBCHEM_CACTVS_COMPLEXITY>
347

> <PUBCHEM_CACTVS_HBOND_ACCEPTOR>
1

> <PUBCHEM_CACTVS_HBOND_DONOR>
0

> <PUBCHEM_CACTVS_ROTATABLE_BOND>
0

> <PUBCHEM_CACTVS_SUBSKEYS>
AAADceBwIAAAAAAAAAAAAAAAEgAAAYMAAAAwAAAABogYAADAAAAAGgAAAAAADxSggAICAAAABAAAAAAAAAAAAAAAAAAAAAAAAAAAAAIAAAACAAAEAAAAAAGAwPAPgAAAAAAAAADAAAYAADAAAQAACAAAAA==

> <PUBCHEM_IUPAC_OPENEYE_NAME>
2,6,6,8-tetramethyl-10-oxatetracyclo[5.4.1.01,5.09,11]dodecane

> <PUBCHEM_IUPAC_CAS_NAME>
2,6,6,8-tetramethyl-10-oxatetracyclo[5.4.1.01,5.09,11]dodecane

> <PUBCHEM_IUPAC_NAME_MARKUP>
2,6,6,8-tetramethyl-10-oxatetracyclo[5.4.1.0<SUP>1,5</SUP>.0<SUP>9,11</SUP>]dodecane

> <PUBCHEM_IUPAC_NAME>
2,6,6,8-tetramethyl-10-oxatetracyclo[5.4.1.01,5.09,11]dodecane

> <PUBCHEM_IUPAC_SYSTEMATIC_NAME>
2,6,6,8-tetramethyl-10-oxatetracyclo[5.4.1.01,5.09,11]dodecane

> <PUBCHEM_IUPAC_TRADITIONAL_NAME>
2,6,6,8-tetramethyl-10-oxatetracyclo[5.4.1.01,5.09,11]dodecane

> <PUBCHEM_IUPAC_INCHI>
InChI=1S/C15H24O/c1-8-5-6-11-14(3,4)10-7-15(8,11)13-12(16-13)9(10)2/h8-13H,5-7H2,1-4H3

> <PUBCHEM_IUPAC_INCHIKEY>
HETWPUJFGKDFMN-UHFFFAOYSA-N

> <PUBCHEM_XLOGP3_AA>
4.2

> <PUBCHEM_EXACT_MASS>
220.182715

> <PUBCHEM_MOLECULAR_FORMULA>
C15H24O

> <PUBCHEM_MOLECULAR_WEIGHT>
220.35

> <PUBCHEM_OPENEYE_CAN_SMILES>
CC1CCC2C13CC(C2(C)C)C(C4C3O4)C

> <PUBCHEM_OPENEYE_ISO_SMILES>
CC1CCC2C13CC(C2(C)C)C(C4C3O4)C

> <PUBCHEM_CACTVS_TPSA>
12.5

> <PUBCHEM_MONOISOTOPIC_WEIGHT>
220.182715

> <PUBCHEM_TOTAL_CHARGE>
0

> <PUBCHEM_HEAVY_ATOM_COUNT>
16

> <PUBCHEM_ATOM_DEF_STEREO_COUNT>
0

> <PUBCHEM_ATOM_UDEF_STEREO_COUNT>
7

> <PUBCHEM_BOND_DEF_STEREO_COUNT>
0

> <PUBCHEM_BOND_UDEF_STEREO_COUNT>
0

> <PUBCHEM_ISOTOPIC_ATOM_COUNT>
0

> <PUBCHEM_COMPONENT_COUNT>
1

> <PUBCHEM_CACTVS_TAUTO_COUNT>
-1

> <PUBCHEM_COORDINATE_TYPE>
1
5
255

> <PUBCHEM_BONDANNOTATIONS>
4  1  3
8  1  3
10  16  3
2  7  3
3  11  3
5  7  3
9  15  3

$$$$
