5835162
  -OEChem-11202009103D

 39 39  0     1  0  0  0  0  0999 V2000
   -1.7030    0.0210   -0.4018 C   0  0  1  0  0  0  0  0  0  0  0  0
   -1.3031    1.3480    0.3007 C   0  0  0  0  0  0  0  0  0  0  0  0
   -0.9376   -1.2537    0.0520 C   0  0  0  0  0  0  0  0  0  0  0  0
   -0.1226    2.1442   -0.3062 C   0  0  0  0  0  0  0  0  0  0  0  0
   -3.1701   -0.2150   -0.1493 C   0  0  0  0  0  0  0  0  0  0  0  0
    1.2543    1.6569    0.0905 C   0  0  0  0  0  0  0  0  0  0  0  0
    0.4181   -1.3601   -0.5794 C   0  0  0  0  0  0  0  0  0  0  0  0
    2.8767   -1.2417   -0.7510 C   0  0  0  0  0  0  0  0  0  0  0  0
    1.6068   -1.5749    0.0212 C   0  0  0  0  0  0  0  0  0  0  0  0
    3.2699    0.2478   -0.5807 C   0  0  0  0  0  0  0  0  0  0  0  0
    2.0769    1.1360   -0.8437 C   0  0  0  0  0  0  0  0  0  0  0  0
   -3.5701   -0.4214    1.2816 C   0  0  0  0  0  0  0  0  0  0  0  0
    1.5684    1.7310    1.5603 C   0  0  0  0  0  0  0  0  0  0  0  0
    1.8017   -1.9798    1.4527 C   0  0  0  0  0  0  0  0  0  0  0  0
   -4.0665   -0.2384   -1.1467 C   0  0  0  0  0  0  0  0  0  0  0  0
   -1.5531    0.1561   -1.4820 H   0  0  0  0  0  0  0  0  0  0  0  0
   -1.1330    1.1738    1.3696 H   0  0  0  0  0  0  0  0  0  0  0  0
   -2.1607    2.0351    0.2479 H   0  0  0  0  0  0  0  0  0  0  0  0
   -1.4951   -2.1513   -0.2465 H   0  0  0  0  0  0  0  0  0  0  0  0
   -0.8654   -1.2663    1.1439 H   0  0  0  0  0  0  0  0  0  0  0  0
   -0.2070    3.1883    0.0244 H   0  0  0  0  0  0  0  0  0  0  0  0
   -0.2370    2.1732   -1.3970 H   0  0  0  0  0  0  0  0  0  0  0  0
    0.4287   -1.1117   -1.6409 H   0  0  0  0  0  0  0  0  0  0  0  0
    3.7020   -1.8853   -0.4241 H   0  0  0  0  0  0  0  0  0  0  0  0
    2.7342   -1.4568   -1.8187 H   0  0  0  0  0  0  0  0  0  0  0  0
    4.0681    0.4997   -1.2883 H   0  0  0  0  0  0  0  0  0  0  0  0
    3.6873    0.4006    0.4185 H   0  0  0  0  0  0  0  0  0  0  0  0
    1.7609    1.1620   -1.8861 H   0  0  0  0  0  0  0  0  0  0  0  0
   -3.1074   -1.3188    1.7023 H   0  0  0  0  0  0  0  0  0  0  0  0
   -3.3024    0.4375    1.9036 H   0  0  0  0  0  0  0  0  0  0  0  0
   -4.6543   -0.5525    1.3773 H   0  0  0  0  0  0  0  0  0  0  0  0
    1.2818    2.7120    1.9551 H   0  0  0  0  0  0  0  0  0  0  0  0
    2.6331    1.6143    1.7759 H   0  0  0  0  0  0  0  0  0  0  0  0
    1.0219    0.9652    2.1176 H   0  0  0  0  0  0  0  0  0  0  0  0
    2.3052   -1.1881    2.0150 H   0  0  0  0  0  0  0  0  0  0  0  0
    2.4244   -2.8796    1.5005 H   0  0  0  0  0  0  0  0  0  0  0  0
    0.8654   -2.2156    1.9639 H   0  0  0  0  0  0  0  0  0  0  0  0
   -5.1205   -0.4089   -0.9543 H   0  0  0  0  0  0  0  0  0  0  0  0
   -3.7689   -0.0878   -2.1790 H   0  0  0  0  0  0  0  0  0  0  0  0
  1  2  1  0  0  0  0
  1  3  1  0  0  0  0
  1  5  1  0  0  0  0
  1 16  1  0  0  0  0
  2  4  1  0  0  0  0
  2 17  1  0  0  0  0
  2 18  1  0  0  0  0
  3  7  1  0  0  0  0
  3 19  1  0  0  0  0
  3 20  1  0  0  0  0
  4  6  1  0  0  0  0
  4 21  1  0  0  0  0
  4 22  1  0  0  0  0
  5 12  1  0  0  0  0
  5 15  2  0  0  0  0
  6 11  2  0  0  0  0
  6 13  1  0  0  0  0
  7  9  2  0  0  0  0
  7 23  1  0  0  0  0
  8  9  1  0  0  0  0
  8 10  1  0  0  0  0
  8 24  1  0  0  0  0
  8 25  1  0  0  0  0
  9 14  1  0  0  0  0
 10 11  1  0  0  0  0
 10 26  1  0  0  0  0
 10 27  1  0  0  0  0
 11 28  1  0  0  0  0
 12 29  1  0  0  0  0
 12 30  1  0  0  0  0
 12 31  1  0  0  0  0
 13 32  1  0  0  0  0
 13 33  1  0  0  0  0
 13 34  1  0  0  0  0
 14 35  1  0  0  0  0
 14 36  1  0  0  0  0
 14 37  1  0  0  0  0
 15 38  1  0  0  0  0
 15 39  1  0  0  0  0
M  END
> <PUBCHEM_COMPOUND_CID>
5835162

> <PUBCHEM_CONFORMER_RMSD>
0.6

> <PUBCHEM_CONFORMER_DIVERSEORDER>
2
21
27
28
14
1
22
7
30
26
15
8
25
18
12
16
13
23
11
29
9
17
19
20
6
5
24
31
3
10
32
4

> <PUBCHEM_MMFF94_PARTIAL_CHARGES>
18
1 0.14
10 0.14
11 -0.29
12 0.14
13 0.14
14 0.14
15 -0.3
23 0.15
28 0.15
3 0.14
38 0.15
39 0.15
4 0.14
5 -0.28
6 -0.28
7 -0.29
8 0.14
9 -0.28

> <PUBCHEM_EFFECTIVE_ROTOR_COUNT>
2.2

> <PUBCHEM_PHARMACOPHORE_FEATURES>
0

> <PUBCHEM_HEAVY_ATOM_COUNT>
15

> <PUBCHEM_ATOM_DEF_STEREO_COUNT>
0

> <PUBCHEM_ATOM_UDEF_STEREO_COUNT>
1

> <PUBCHEM_BOND_DEF_STEREO_COUNT>
2

> <PUBCHEM_BOND_UDEF_STEREO_COUNT>
0

> <PUBCHEM_ISOTOPIC_ATOM_COUNT>
0

> <PUBCHEM_COMPONENT_COUNT>
1

> <PUBCHEM_CACTVS_TAUTO_COUNT>
1

> <PUBCHEM_CONFORMER_ID>
0059099A00000002

> <PUBCHEM_MMFF94_ENERGY>
35.0087

> <PUBCHEM_FEATURE_SELFOVERLAP>
0

> <PUBCHEM_SHAPE_FINGERPRINT>
104564 63 18197790907287096868
10980938 120 18411418435962345279
11067466 332 18408039624124791032
11086676 242 18339084770000630498
12654215 9 18335132098623633444
13221675 6 18413394236819312231
14251717 144 18341889718868697391
14251745 187 18338801229434885144
14817 1 11284067178136965812
15375462 189 18341903947789348384
15536298 74 17988359364043669517
15757776 16 18408601448627865380
15775835 57 18270971253104956324
16945 1 18341061795144913676
20201158 50 18334297569356121567
20559304 39 18337101255472512178
20645476 183 17462297038308554636
20645477 70 18341326769084035869
21501502 16 18264205807872870021
22721475 48 18411706465016951468
2334 1 17762901365173481188
23402539 116 18200308806379605038
23419403 2 17468705851084425124
23493267 7 17313103059921311793
2748010 2 17979641456727307372
2871803 45 18335141968722236812
2897 32 18264214612634668844
3060560 45 18131066043391266263
3286 77 16199858467168393398
353137 74 18335146362494859812
528862 383 18409161142964492607
53812653 166 18269838769171549800
57483677 104 18341612688924571024
581208 293 18270674389134148269
63268167 104 18341338867537357792
7364860 26 18060132184728239608
81228 2 17474105402111363787

> <PUBCHEM_SHAPE_MULTIPOLES>
308.69
5.83
2.29
1.27
4.6
0.36
-0.4
-1.12
0.81
-1.46
-0.45
-0.02
-0.06
0.01

> <PUBCHEM_SHAPE_SELFOVERLAP>
603.173

> <PUBCHEM_SHAPE_VOLUME>
183.4

> <PUBCHEM_COORDINATE_TYPE>
2
5
10

$$$$
