91752762
  -OEChem-11202009003D

 39 40  0     1  0  0  0  0  0999 V2000
   -1.5525   -0.9674   -0.0496 C   0  0  1  0  0  0  0  0  0  0  0  0
   -0.5310    0.1280    0.3372 C   0  0  1  0  0  0  0  0  0  0  0  0
    0.8127   -0.4689   -0.1159 C   0  0  2  0  0  0  0  0  0  0  0  0
   -0.8365   -2.2178    0.4809 C   0  0  0  0  0  0  0  0  0  0  0  0
    0.6544   -1.9796    0.1752 C   0  0  0  0  0  0  0  0  0  0  0  0
   -2.8929   -0.6633    0.6457 C   0  0  0  0  0  0  0  0  0  0  0  0
   -1.0176    1.4813   -0.1175 C   0  0  0  0  0  0  0  0  0  0  0  0
   -3.4137    0.7390    0.2835 C   0  0  0  0  0  0  0  0  0  0  0  0
   -1.7747   -1.1204   -1.5744 C   0  0  0  0  0  0  0  0  0  0  0  0
   -2.3637    1.8455    0.4760 C   0  0  0  0  0  0  0  0  0  0  0  0
    1.9910    0.1243    0.5854 C   0  0  0  0  0  0  0  0  0  0  0  0
   -0.3653    2.2994   -0.9551 C   0  0  0  0  0  0  0  0  0  0  0  0
    3.2579    0.2339    0.1436 C   0  0  0  0  0  0  0  0  0  0  0  0
    4.3983    0.8453    0.9070 C   0  0  0  0  0  0  0  0  0  0  0  0
    3.6336   -0.2794   -1.2219 C   0  0  0  0  0  0  0  0  0  0  0  0
   -0.4978    0.1884    1.4389 H   0  0  0  0  0  0  0  0  0  0  0  0
    0.9099   -0.3230   -1.1978 H   0  0  0  0  0  0  0  0  0  0  0  0
   -1.1998   -3.1469    0.0293 H   0  0  0  0  0  0  0  0  0  0  0  0
   -0.9681   -2.3092    1.5664 H   0  0  0  0  0  0  0  0  0  0  0  0
    1.2693   -2.3228    1.0152 H   0  0  0  0  0  0  0  0  0  0  0  0
    0.9595   -2.5598   -0.7039 H   0  0  0  0  0  0  0  0  0  0  0  0
   -2.7691   -0.7171    1.7352 H   0  0  0  0  0  0  0  0  0  0  0  0
   -3.6451   -1.4163    0.3820 H   0  0  0  0  0  0  0  0  0  0  0  0
   -4.2940    0.9662    0.8965 H   0  0  0  0  0  0  0  0  0  0  0  0
   -3.7579    0.7449   -0.7576 H   0  0  0  0  0  0  0  0  0  0  0  0
   -0.8659   -1.4242   -2.1035 H   0  0  0  0  0  0  0  0  0  0  0  0
   -2.1227   -0.1950   -2.0425 H   0  0  0  0  0  0  0  0  0  0  0  0
   -2.5280   -1.8919   -1.7726 H   0  0  0  0  0  0  0  0  0  0  0  0
   -2.2285    2.0235    1.5507 H   0  0  0  0  0  0  0  0  0  0  0  0
   -2.7480    2.7802    0.0506 H   0  0  0  0  0  0  0  0  0  0  0  0
    1.7985    0.4917    1.5933 H   0  0  0  0  0  0  0  0  0  0  0  0
    0.5956    2.0383   -1.3826 H   0  0  0  0  0  0  0  0  0  0  0  0
   -0.7831    3.2604   -1.2369 H   0  0  0  0  0  0  0  0  0  0  0  0
    4.8215    1.6877    0.3505 H   0  0  0  0  0  0  0  0  0  0  0  0
    4.5465   -0.8820   -1.1545 H   0  0  0  0  0  0  0  0  0  0  0  0
    2.8814   -0.9197   -1.6875 H   0  0  0  0  0  0  0  0  0  0  0  0
    4.0740    1.2189    1.8838 H   0  0  0  0  0  0  0  0  0  0  0  0
    5.1864    0.1049    1.0768 H   0  0  0  0  0  0  0  0  0  0  0  0
    3.8305    0.5610   -1.8957 H   0  0  0  0  0  0  0  0  0  0  0  0
  1  2  1  0  0  0  0
  1  4  1  0  0  0  0
  1  6  1  0  0  0  0
  1  9  1  0  0  0  0
  2  3  1  0  0  0  0
  2  7  1  0  0  0  0
  2 16  1  0  0  0  0
  3  5  1  0  0  0  0
  3 11  1  0  0  0  0
  3 17  1  0  0  0  0
  4  5  1  0  0  0  0
  4 18  1  0  0  0  0
  4 19  1  0  0  0  0
  5 20  1  0  0  0  0
  5 21  1  0  0  0  0
  6  8  1  0  0  0  0
  6 22  1  0  0  0  0
  6 23  1  0  0  0  0
  7 10  1  0  0  0  0
  7 12  2  0  0  0  0
  8 10  1  0  0  0  0
  8 24  1  0  0  0  0
  8 25  1  0  0  0  0
  9 26  1  0  0  0  0
  9 27  1  0  0  0  0
  9 28  1  0  0  0  0
 10 29  1  0  0  0  0
 10 30  1  0  0  0  0
 11 13  2  0  0  0  0
 11 31  1  0  0  0  0
 12 32  1  0  0  0  0
 12 33  1  0  0  0  0
 13 14  1  0  0  0  0
 13 15  1  0  0  0  0
 14 34  1  0  0  0  0
 14 37  1  0  0  0  0
 14 38  1  0  0  0  0
 15 35  1  0  0  0  0
 15 36  1  0  0  0  0
 15 39  1  0  0  0  0
M  END
> <PUBCHEM_COMPOUND_CID>
91752762

> <PUBCHEM_CONFORMER_RMSD>
0.6

> <PUBCHEM_CONFORMER_DIVERSEORDER>
1
2

> <PUBCHEM_MMFF94_PARTIAL_CHARGES>
12
10 0.14
11 -0.29
12 -0.3
13 -0.28
14 0.14
15 0.14
2 0.14
3 0.14
31 0.15
32 0.15
33 0.15
7 -0.28

> <PUBCHEM_EFFECTIVE_ROTOR_COUNT>
2.2

> <PUBCHEM_PHARMACOPHORE_FEATURES>
3
3 13 14 15 hydrophobe
5 1 2 3 4 5 rings
6 1 2 6 7 8 10 rings

> <PUBCHEM_HEAVY_ATOM_COUNT>
15

> <PUBCHEM_ATOM_DEF_STEREO_COUNT>
3

> <PUBCHEM_ATOM_UDEF_STEREO_COUNT>
0

> <PUBCHEM_BOND_DEF_STEREO_COUNT>
0

> <PUBCHEM_BOND_UDEF_STEREO_COUNT>
0

> <PUBCHEM_ISOTOPIC_ATOM_COUNT>
0

> <PUBCHEM_COMPONENT_COUNT>
1

> <PUBCHEM_CACTVS_TAUTO_COUNT>
1

> <PUBCHEM_CONFORMER_ID>
0578093A00000001

> <PUBCHEM_MMFF94_ENERGY>
38.5408

> <PUBCHEM_FEATURE_SELFOVERLAP>
15.282

> <PUBCHEM_SHAPE_FINGERPRINT>
10608611 8 18272931635456761056
11132069 177 18410855464586932328
12423570 1 17916321578912011983
13024252 1 12757141377416239955
13140716 1 18048603908485266755
13214271 11 18408039628345872795
13380535 21 18267878172129617067
14289901 80 14634870889923259540
14614273 12 18261662671547288876
14993402 34 18334015003758430589
15219456 202 17989211425900297110
15775835 57 18341612568686559896
16945 1 18202273702351140587
17846911 113 18408880737371413248
18186145 218 17989215815367410218
18981168 100 17606400934556725862
19868273 325 18336543923182884980
200 152 13912318018683379186
20510252 161 18343586239292833728
20525323 117 18411972577027383166
20645477 56 18342738533498141800
21486144 27 17846778507784414120
21501502 16 18122062005416843531
21524375 3 18267303127616991914
22802520 49 18270976639189397230
22959321 45 18262245434174186568
2306618 200 17459170976110251910
2334 1 17832709354115404107
23402539 116 18339629148536829142
23419403 2 16471982286758644361
23557571 272 18196944485787788686
23559900 14 18343308055299866396
2748010 2 18192161399500351463
350125 39 17975700489310271704
43471831 8 18261392204614365331
528886 8 18408318887035108331
5706482 22 18336818719401236451
6333449 129 18341890792320403225
69090 78 17775001284557847295
7364860 26 18053102813650481410
77492 1 17385447648074206438
81228 2 18337667641378314130
90316 7 17967523554558167724

> <PUBCHEM_SHAPE_MULTIPOLES>
308.69
6.05
2.22
1.1
5.87
0.09
-0.34
1.49
0.78
-1.12
-0.11
0.19
-0.05
0.12

> <PUBCHEM_SHAPE_SELFOVERLAP>
629.966

> <PUBCHEM_SHAPE_VOLUME>
170.4

> <PUBCHEM_COORDINATE_TYPE>
2
5
10

$$$$
