91752761
  -OEChem-11202009043D

 39 40  0     1  0  0  0  0  0999 V2000
    0.8454   -0.8827    0.8197 C   0  0  1  0  0  0  0  0  0  0  0  0
   -0.1371    0.3228    0.7101 C   0  0  2  0  0  0  0  0  0  0  0  0
    0.8700   -1.7009   -0.4987 C   0  0  2  0  0  0  0  0  0  0  0  0
    2.2243   -0.3667    1.2628 C   0  0  0  0  0  0  0  0  0  0  0  0
   -1.4639   -0.0702    0.0776 C   0  0  0  0  0  0  0  0  0  0  0  0
   -0.5397   -2.2275   -0.8174 C   0  0  0  0  0  0  0  0  0  0  0  0
    2.8151    0.6409    0.2759 C   0  0  0  0  0  0  0  0  0  0  0  0
    0.4894    1.5106    0.0051 C   0  0  0  0  0  0  0  0  0  0  0  0
   -1.6258   -1.2227   -0.5944 C   0  0  0  0  0  0  0  0  0  0  0  0
   -2.6277    0.8600    0.2950 C   0  0  0  0  0  0  0  0  0  0  0  0
    1.8101    1.6541   -0.2069 C   0  0  0  0  0  0  0  0  0  0  0  0
    1.8523   -2.8747   -0.4631 C   0  0  0  0  0  0  0  0  0  0  0  0
   -3.1682    1.3417   -1.0450 C   0  0  0  0  0  0  0  0  0  0  0  0
   -3.7154    0.1739    1.1127 C   0  0  0  0  0  0  0  0  0  0  0  0
    2.3712    2.8412   -0.9333 C   0  0  0  0  0  0  0  0  0  0  0  0
    0.4769   -1.5467    1.6158 H   0  0  0  0  0  0  0  0  0  0  0  0
   -0.3535    0.6475    1.7386 H   0  0  0  0  0  0  0  0  0  0  0  0
    1.1733   -1.0470   -1.3272 H   0  0  0  0  0  0  0  0  0  0  0  0
    2.9275   -1.1913    1.4202 H   0  0  0  0  0  0  0  0  0  0  0  0
    2.1162    0.1202    2.2420 H   0  0  0  0  0  0  0  0  0  0  0  0
   -0.7651   -3.1092   -0.2042 H   0  0  0  0  0  0  0  0  0  0  0  0
   -0.5698   -2.5542   -1.8642 H   0  0  0  0  0  0  0  0  0  0  0  0
    3.2309    0.1143   -0.5914 H   0  0  0  0  0  0  0  0  0  0  0  0
    3.6508    1.1537    0.7672 H   0  0  0  0  0  0  0  0  0  0  0  0
   -0.1784    2.3022   -0.3273 H   0  0  0  0  0  0  0  0  0  0  0  0
   -2.5972   -1.4914   -1.0006 H   0  0  0  0  0  0  0  0  0  0  0  0
   -2.2975    1.7410    0.8594 H   0  0  0  0  0  0  0  0  0  0  0  0
    1.6664   -3.5216    0.4007 H   0  0  0  0  0  0  0  0  0  0  0  0
    2.8884   -2.5269   -0.4144 H   0  0  0  0  0  0  0  0  0  0  0  0
    1.7603   -3.4846   -1.3685 H   0  0  0  0  0  0  0  0  0  0  0  0
   -3.3178   -0.2043    2.0613 H   0  0  0  0  0  0  0  0  0  0  0  0
   -4.5147    0.8846    1.3518 H   0  0  0  0  0  0  0  0  0  0  0  0
   -3.9410    2.1030   -0.8884 H   0  0  0  0  0  0  0  0  0  0  0  0
   -4.1775   -0.6647    0.5805 H   0  0  0  0  0  0  0  0  0  0  0  0
   -3.6254    0.5365   -1.6303 H   0  0  0  0  0  0  0  0  0  0  0  0
   -2.3800    1.7977   -1.6545 H   0  0  0  0  0  0  0  0  0  0  0  0
    3.0498    3.4003   -0.2810 H   0  0  0  0  0  0  0  0  0  0  0  0
    1.5883    3.5295   -1.2686 H   0  0  0  0  0  0  0  0  0  0  0  0
    2.9283    2.5148   -1.8175 H   0  0  0  0  0  0  0  0  0  0  0  0
  1  2  1  0  0  0  0
  1  3  1  0  0  0  0
  1  4  1  0  0  0  0
  1 16  1  0  0  0  0
  2  5  1  0  0  0  0
  2  8  1  0  0  0  0
  2 17  1  0  0  0  0
  3  6  1  0  0  0  0
  3 12  1  0  0  0  0
  3 18  1  0  0  0  0
  4  7  1  0  0  0  0
  4 19  1  0  0  0  0
  4 20  1  0  0  0  0
  5  9  2  0  0  0  0
  5 10  1  0  0  0  0
  6  9  1  0  0  0  0
  6 21  1  0  0  0  0
  6 22  1  0  0  0  0
  7 11  1  0  0  0  0
  7 23  1  0  0  0  0
  7 24  1  0  0  0  0
  8 11  2  0  0  0  0
  8 25  1  0  0  0  0
  9 26  1  0  0  0  0
 10 13  1  0  0  0  0
 10 14  1  0  0  0  0
 10 27  1  0  0  0  0
 11 15  1  0  0  0  0
 12 28  1  0  0  0  0
 12 29  1  0  0  0  0
 12 30  1  0  0  0  0
 13 33  1  0  0  0  0
 13 35  1  0  0  0  0
 13 36  1  0  0  0  0
 14 31  1  0  0  0  0
 14 32  1  0  0  0  0
 14 34  1  0  0  0  0
 15 37  1  0  0  0  0
 15 38  1  0  0  0  0
 15 39  1  0  0  0  0
M  END
> <PUBCHEM_COMPOUND_CID>
91752761

> <PUBCHEM_CONFORMER_RMSD>
0.6

> <PUBCHEM_CONFORMER_DIVERSEORDER>
1
2
3

> <PUBCHEM_MMFF94_PARTIAL_CHARGES>
11
10 0.14
11 -0.28
15 0.14
2 0.28
25 0.15
26 0.15
5 -0.28
6 0.14
7 0.14
8 -0.29
9 -0.29

> <PUBCHEM_EFFECTIVE_ROTOR_COUNT>
1.8

> <PUBCHEM_PHARMACOPHORE_FEATURES>
3
3 10 13 14 hydrophobe
6 1 2 3 5 6 9 rings
6 1 2 4 7 8 11 rings

> <PUBCHEM_HEAVY_ATOM_COUNT>
15

> <PUBCHEM_ATOM_DEF_STEREO_COUNT>
3

> <PUBCHEM_ATOM_UDEF_STEREO_COUNT>
0

> <PUBCHEM_BOND_DEF_STEREO_COUNT>
0

> <PUBCHEM_BOND_UDEF_STEREO_COUNT>
0

> <PUBCHEM_ISOTOPIC_ATOM_COUNT>
0

> <PUBCHEM_COMPONENT_COUNT>
1

> <PUBCHEM_CACTVS_TAUTO_COUNT>
1

> <PUBCHEM_CONFORMER_ID>
0578093900000001

> <PUBCHEM_MMFF94_ENERGY>
18.9618

> <PUBCHEM_FEATURE_SELFOVERLAP>
15.279

> <PUBCHEM_SHAPE_FINGERPRINT>
1 1 18411705404191632412
10465860 228 18128832845508162209
10980938 120 18409168822297634593
116883 192 17691113842963998357
12138202 78 18052531080472595886
12423570 1 18338500963643789338
12524768 44 18196924483518605187
12592029 89 18338815479978137226
12808571 1 18190744334869755088
13140716 1 18340202011374821296
13380535 21 18342186591361394075
14181834 199 17844515622174971334
14648413 74 18263648368494189329
15219456 202 18335987450620433753
15219459 52 18342168917433697607
15490181 8 18338794640754924090
15775835 57 18192438677914543509
16945 1 18412540985689032888
17134986 127 18409732901764307412
17357779 13 17550369757533090118
17990270 104 18336547092984735627
18186145 218 18271250537722757504
19786989 88 18409169934978974765
20511035 2 18059566966884912727
20645477 70 18335697214021143997
20671657 1 18271815604862447014
21029758 27 17909280087104144246
21130352 189 18050562950237516919
21501502 16 18339360872316476291
21524375 3 18118124903333341168
22182313 1 17978779122084218476
2334 1 18122901203266333072
241688 4 17619072728889190890
2748010 2 17907002989869190796
276578 36 17917725590661917531
3060560 45 18412262809442417348
3071541 158 18194686968755454102
3286 77 16877654652136104241
430814 3 18267311000260240977
53812653 8 17978791542776353402
7364860 26 18341616979639097760
81228 2 17259620872651642088
90525 40 18268427017468395758

> <PUBCHEM_SHAPE_MULTIPOLES>
308.69
4.8
2.93
1.13
3.23
0.54
0.09
-2.07
0.43
-2.15
-1.26
0.15
-0.02
-0.26

> <PUBCHEM_SHAPE_SELFOVERLAP>
628.752

> <PUBCHEM_SHAPE_VOLUME>
175.3

> <PUBCHEM_COORDINATE_TYPE>
2
5
10

$$$$
