21599000
  -OEChem-08242017103D

 98104  0     1  0  0  0  0  0999 V2000
    2.0003    1.2494    0.5524 O   0  0  0  0  0  0  0  0  0  0  0  0
   -1.1204    2.8004    0.7618 O   0  0  0  0  0  0  0  0  0  0  0  0
   -2.5912   -2.9021   -0.6739 O   0  0  0  0  0  0  0  0  0  0  0  0
    3.4411   -0.8414   -1.1415 O   0  0  0  0  0  0  0  0  0  0  0  0
    2.2859   -3.6656   -1.3343 O   0  0  0  0  0  0  0  0  0  0  0  0
    1.3669   -1.0376    2.6429 O   0  0  0  0  0  0  0  0  0  0  0  0
   -5.7472    0.5392   -0.2914 O   0  0  0  0  0  0  0  0  0  0  0  0
    3.1276   -3.0260    1.0706 O   0  0  0  0  0  0  0  0  0  0  0  0
   -3.8873    2.9112   -1.6543 O   0  0  0  0  0  0  0  0  0  0  0  0
    1.7598    1.2506    2.8500 O   0  0  0  0  0  0  0  0  0  0  0  0
    3.2793    1.0497   -2.4443 O   0  0  0  0  0  0  0  0  0  0  0  0
   -6.7586   -0.5831   -2.0391 O   0  0  0  0  0  0  0  0  0  0  0  0
   -2.5297   -0.3791    1.7318 N   0  0  2  0  0  0  0  0  0  0  0  0
   -1.5963   -0.6133   -0.5748 C   0  0  1  0  0  0  0  0  0  0  0  0
   -1.9624    0.9200   -0.7192 C   0  0  2  0  0  0  0  0  0  0  0  0
   -0.2694   -1.0331   -1.3478 C   0  0  1  0  0  0  0  0  0  0  0  0
   -1.2984   -0.6047    0.9440 C   0  0  1  0  0  0  0  0  0  0  0  0
   -0.2464    0.5428    1.0034 C   0  0  1  0  0  0  0  0  0  0  0  0
    1.0407   -0.2630   -1.0394 C   0  0  1  0  0  0  0  0  0  0  0  0
    1.1425    0.0863    0.4682 C   0  0  1  0  0  0  0  0  0  0  0  0
   -0.8003    1.6293    0.0373 C   0  0  2  0  0  0  0  0  0  0  0  0
   -3.3684    1.1914   -0.0794 C   0  0  2  0  0  0  0  0  0  0  0  0
   -2.7575   -1.5425   -1.0675 C   0  0  2  0  0  0  0  0  0  0  0  0
    0.1679   -2.5121   -1.1607 C   0  0  0  0  0  0  0  0  0  0  0  0
    1.6687   -2.5001   -0.8115 C   0  0  2  0  0  0  0  0  0  0  0  0
    2.1342   -1.2323   -1.5093 C   0  0  2  0  0  0  0  0  0  0  0  0
    1.8657   -1.0057    1.3037 C   0  0  2  0  0  0  0  0  0  0  0  0
   -3.2732    0.8592    1.4420 C   0  0  0  0  0  0  0  0  0  0  0  0
   -4.4319    0.3116   -0.8001 C   0  0  1  0  0  0  0  0  0  0  0  0
    1.8661   -2.4340    0.7208 C   0  0  2  0  0  0  0  0  0  0  0  0
   -4.1686   -1.1672   -0.6553 C   0  0  0  0  0  0  0  0  0  0  0  0
   -3.8281    2.6592   -0.2699 C   0  0  0  0  0  0  0  0  0  0  0  0
   -2.3114   -0.5424    3.1658 C   0  0  0  0  0  0  0  0  0  0  0  0
    2.2119    1.7107    1.8101 C   0  0  0  0  0  0  0  0  0  0  0  0
    0.0180    3.3397    1.4258 C   0  0  0  0  0  0  0  0  0  0  0  0
   -3.6289   -0.5750    3.9216 C   0  0  0  0  0  0  0  0  0  0  0  0
   -3.5371   -3.7453   -1.3139 C   0  0  0  0  0  0  0  0  0  0  0  0
    3.8999    0.3267   -1.6805 C   0  0  0  0  0  0  0  0  0  0  0  0
    3.2915   -3.0745    2.4758 C   0  0  0  0  0  0  0  0  0  0  0  0
   -6.7398   -0.1878   -0.8813 C   0  0  0  0  0  0  0  0  0  0  0  0
    3.1113    2.9076    1.7432 C   0  0  0  0  0  0  0  0  0  0  0  0
   -4.3036    4.2454   -1.9375 C   0  0  0  0  0  0  0  0  0  0  0  0
    5.2795    0.6231   -1.2187 C   0  0  0  0  0  0  0  0  0  0  0  0
   -7.8338   -0.4433    0.1107 C   0  0  0  0  0  0  0  0  0  0  0  0
    5.9012    1.7699   -1.6684 C   0  0  0  0  0  0  0  0  0  0  0  0
    5.8968   -0.2571   -0.3537 C   0  0  0  0  0  0  0  0  0  0  0  0
    7.1972    2.0487   -1.2344 C   0  0  0  0  0  0  0  0  0  0  0  0
    7.1928    0.0218    0.0803 C   0  0  0  0  0  0  0  0  0  0  0  0
    7.8429    1.1747   -0.3601 C   0  0  0  0  0  0  0  0  0  0  0  0
   -1.9597    1.2070   -1.7777 H   0  0  0  0  0  0  0  0  0  0  0  0
   -0.4729   -0.8927   -2.4200 H   0  0  0  0  0  0  0  0  0  0  0  0
   -0.8735   -1.5627    1.2553 H   0  0  0  0  0  0  0  0  0  0  0  0
   -0.2342    0.9023    2.0261 H   0  0  0  0  0  0  0  0  0  0  0  0
    1.0835    0.6407   -1.6531 H   0  0  0  0  0  0  0  0  0  0  0  0
   -0.0827    1.9592   -0.7177 H   0  0  0  0  0  0  0  0  0  0  0  0
   -2.7217   -1.4993   -2.1664 H   0  0  0  0  0  0  0  0  0  0  0  0
   -0.0097   -3.0629   -2.0936 H   0  0  0  0  0  0  0  0  0  0  0  0
   -0.3742   -3.0498   -0.3824 H   0  0  0  0  0  0  0  0  0  0  0  0
    2.1094   -1.3762   -2.5988 H   0  0  0  0  0  0  0  0  0  0  0  0
    2.9171   -0.7026    1.4003 H   0  0  0  0  0  0  0  0  0  0  0  0
   -4.2978    0.7748    1.8226 H   0  0  0  0  0  0  0  0  0  0  0  0
   -2.8278    1.6983    1.9884 H   0  0  0  0  0  0  0  0  0  0  0  0
   -4.4330    0.5589   -1.8708 H   0  0  0  0  0  0  0  0  0  0  0  0
    1.0971   -3.0499    1.2052 H   0  0  0  0  0  0  0  0  0  0  0  0
   -4.4018   -1.5170    0.3591 H   0  0  0  0  0  0  0  0  0  0  0  0
   -4.8686   -1.7206   -1.2865 H   0  0  0  0  0  0  0  0  0  0  0  0
   -4.8224    2.8055    0.1713 H   0  0  0  0  0  0  0  0  0  0  0  0
   -3.1767    3.3890    0.2111 H   0  0  0  0  0  0  0  0  0  0  0  0
   -1.6754    0.2479    3.5804 H   0  0  0  0  0  0  0  0  0  0  0  0
   -1.8025   -1.4963    3.3512 H   0  0  0  0  0  0  0  0  0  0  0  0
    1.8968   -4.4343   -0.8834 H   0  0  0  0  0  0  0  0  0  0  0  0
    1.1444   -0.1658    2.9827 H   0  0  0  0  0  0  0  0  0  0  0  0
    0.8517    3.4421    0.7370 H   0  0  0  0  0  0  0  0  0  0  0  0
    0.1753    2.8805    2.3962 H   0  0  0  0  0  0  0  0  0  0  0  0
   -0.2545    4.3731    1.6746 H   0  0  0  0  0  0  0  0  0  0  0  0
   -3.4523   -0.9018    4.9524 H   0  0  0  0  0  0  0  0  0  0  0  0
   -4.3357   -1.2806    3.4714 H   0  0  0  0  0  0  0  0  0  0  0  0
   -4.1010    0.4106    3.9802 H   0  0  0  0  0  0  0  0  0  0  0  0
   -4.4871   -3.7602   -0.7716 H   0  0  0  0  0  0  0  0  0  0  0  0
   -3.6826   -3.4917   -2.3691 H   0  0  0  0  0  0  0  0  0  0  0  0
   -3.1415   -4.7652   -1.2747 H   0  0  0  0  0  0  0  0  0  0  0  0
    2.3927   -3.4297    2.9904 H   0  0  0  0  0  0  0  0  0  0  0  0
    4.0858   -3.7992    2.6831 H   0  0  0  0  0  0  0  0  0  0  0  0
    3.6370   -2.1208    2.8838 H   0  0  0  0  0  0  0  0  0  0  0  0
    2.7648    3.6671    2.4490 H   0  0  0  0  0  0  0  0  0  0  0  0
    3.1197    3.3490    0.7424 H   0  0  0  0  0  0  0  0  0  0  0  0
    4.1288    2.6006    1.9989 H   0  0  0  0  0  0  0  0  0  0  0  0
   -3.5909    4.9638   -1.5213 H   0  0  0  0  0  0  0  0  0  0  0  0
   -4.3347    4.3711   -3.0230 H   0  0  0  0  0  0  0  0  0  0  0  0
   -5.3044    4.4267   -1.5340 H   0  0  0  0  0  0  0  0  0  0  0  0
   -8.6244   -1.0308   -0.3646 H   0  0  0  0  0  0  0  0  0  0  0  0
   -7.4397   -1.0108    0.9576 H   0  0  0  0  0  0  0  0  0  0  0  0
   -8.2584    0.5059    0.4468 H   0  0  0  0  0  0  0  0  0  0  0  0
    5.4127    2.4614   -2.3483 H   0  0  0  0  0  0  0  0  0  0  0  0
    5.4269   -1.1636    0.0140 H   0  0  0  0  0  0  0  0  0  0  0  0
    7.7034    2.9465   -1.5768 H   0  0  0  0  0  0  0  0  0  0  0  0
    7.6960   -0.6582    0.7617 H   0  0  0  0  0  0  0  0  0  0  0  0
    8.8518    1.3919   -0.0218 H   0  0  0  0  0  0  0  0  0  0  0  0
  1 20  1  0  0  0  0
  1 34  1  0  0  0  0
  2 21  1  0  0  0  0
  2 35  1  0  0  0  0
  3 23  1  0  0  0  0
  3 37  1  0  0  0  0
  4 26  1  0  0  0  0
  4 38  1  0  0  0  0
  5 25  1  0  0  0  0
  5 71  1  0  0  0  0
  6 27  1  0  0  0  0
  6 72  1  0  0  0  0
  7 29  1  0  0  0  0
  7 40  1  0  0  0  0
  8 30  1  0  0  0  0
  8 39  1  0  0  0  0
  9 32  1  0  0  0  0
  9 42  1  0  0  0  0
 10 34  2  0  0  0  0
 11 38  2  0  0  0  0
 12 40  2  0  0  0  0
 13 17  1  0  0  0  0
 13 28  1  0  0  0  0
 13 33  1  0  0  0  0
 14 15  1  0  0  0  0
 14 16  1  0  0  0  0
 14 17  1  0  0  0  0
 14 23  1  0  0  0  0
 15 21  1  0  0  0  0
 15 22  1  0  0  0  0
 15 50  1  0  0  0  0
 16 19  1  0  0  0  0
 16 24  1  0  0  0  0
 16 51  1  0  0  0  0
 17 18  1  0  0  0  0
 17 52  1  0  0  0  0
 18 20  1  0  0  0  0
 18 21  1  0  0  0  0
 18 53  1  0  0  0  0
 19 20  1  0  0  0  0
 19 26  1  0  0  0  0
 19 54  1  0  0  0  0
 20 27  1  0  0  0  0
 21 55  1  0  0  0  0
 22 28  1  0  0  0  0
 22 29  1  0  0  0  0
 22 32  1  0  0  0  0
 23 31  1  0  0  0  0
 23 56  1  0  0  0  0
 24 25  1  0  0  0  0
 24 57  1  0  0  0  0
 24 58  1  0  0  0  0
 25 26  1  0  0  0  0
 25 30  1  0  0  0  0
 26 59  1  0  0  0  0
 27 30  1  0  0  0  0
 27 60  1  0  0  0  0
 28 61  1  0  0  0  0
 28 62  1  0  0  0  0
 29 31  1  0  0  0  0
 29 63  1  0  0  0  0
 30 64  1  0  0  0  0
 31 65  1  0  0  0  0
 31 66  1  0  0  0  0
 32 67  1  0  0  0  0
 32 68  1  0  0  0  0
 33 36  1  0  0  0  0
 33 69  1  0  0  0  0
 33 70  1  0  0  0  0
 34 41  1  0  0  0  0
 35 73  1  0  0  0  0
 35 74  1  0  0  0  0
 35 75  1  0  0  0  0
 36 76  1  0  0  0  0
 36 77  1  0  0  0  0
 36 78  1  0  0  0  0
 37 79  1  0  0  0  0
 37 80  1  0  0  0  0
 37 81  1  0  0  0  0
 38 43  1  0  0  0  0
 39 82  1  0  0  0  0
 39 83  1  0  0  0  0
 39 84  1  0  0  0  0
 40 44  1  0  0  0  0
 41 85  1  0  0  0  0
 41 86  1  0  0  0  0
 41 87  1  0  0  0  0
 42 88  1  0  0  0  0
 42 89  1  0  0  0  0
 42 90  1  0  0  0  0
 43 45  2  0  0  0  0
 43 46  1  0  0  0  0
 44 91  1  0  0  0  0
 44 92  1  0  0  0  0
 44 93  1  0  0  0  0
 45 47  1  0  0  0  0
 45 94  1  0  0  0  0
 46 48  2  0  0  0  0
 46 95  1  0  0  0  0
 47 49  2  0  0  0  0
 47 96  1  0  0  0  0
 48 49  1  0  0  0  0
 48 97  1  0  0  0  0
 49 98  1  0  0  0  0
M  END
> <PUBCHEM_COMPOUND_CID>
21599000

> <PUBCHEM_CONFORMER_RMSD>
1.4

> <PUBCHEM_CONFORMER_DIVERSEORDER>
1

> <PUBCHEM_MMFF94_PARTIAL_CHARGES>
47
1 -0.43
10 -0.57
11 -0.57
12 -0.57
13 -0.81
17 0.27
2 -0.56
20 0.28
21 0.28
23 0.28
25 0.28
26 0.28
27 0.28
28 0.27
29 0.28
3 -0.56
30 0.28
32 0.28
33 0.27
34 0.66
35 0.28
37 0.28
38 0.63
39 0.28
4 -0.43
40 0.66
41 0.06
42 0.28
43 0.09
44 0.06
45 -0.15
46 -0.15
47 -0.15
48 -0.15
49 -0.15
5 -0.68
6 -0.68
7 -0.43
71 0.4
72 0.4
8 -0.56
9 -0.56
94 0.15
95 0.15
96 0.15
97 0.15
98 0.15

> <PUBCHEM_EFFECTIVE_ROTOR_COUNT>
15

> <PUBCHEM_PHARMACOPHORE_FEATURES>
17
1 10 acceptor
1 11 acceptor
1 12 acceptor
1 13 cation
1 2 acceptor
1 3 acceptor
1 5 acceptor
1 5 donor
1 6 acceptor
1 6 donor
1 8 acceptor
1 9 acceptor
6 14 15 22 23 29 31 rings
6 43 45 46 47 48 49 rings
8 13 14 15 17 18 21 22 28 rings
8 14 15 16 17 18 19 20 21 rings
8 16 19 20 24 25 26 27 30 rings

> <PUBCHEM_HEAVY_ATOM_COUNT>
49

> <PUBCHEM_ATOM_DEF_STEREO_COUNT>
14

> <PUBCHEM_ATOM_UDEF_STEREO_COUNT>
1

> <PUBCHEM_BOND_DEF_STEREO_COUNT>
0

> <PUBCHEM_BOND_UDEF_STEREO_COUNT>
0

> <PUBCHEM_ISOTOPIC_ATOM_COUNT>
0

> <PUBCHEM_COMPONENT_COUNT>
1

> <PUBCHEM_CACTVS_TAUTO_COUNT>
1

> <PUBCHEM_CONFORMER_ID>
0149931800000001

> <PUBCHEM_MMFF94_ENERGY>
268.0004

> <PUBCHEM_FEATURE_SELFOVERLAP>
87.819

> <PUBCHEM_SHAPE_FINGERPRINT>
11578080 2 17824249415499383220
117089 54 10735003188485832493
13726171 33 18341339877113921481
13811026 1 17846782915206642188
14068700 675 16845569855240113037
15439362 3 17982447397939775896
18608769 82 18339083791429036711
19319366 153 18333729096265499730
20764821 26 17626952971501366713
23559900 14 17846212315120063271
25223398 141 18120098535348290614
350125 39 18202002161364740975
3633792 109 16660914479790100495
4093350 32 16515952697271772586
4149490 64 17458346325284001939
57527295 17 18338511946413670849
57527306 92 17313381271161215340
6669772 16 17987785445756747920

> <PUBCHEM_SHAPE_MULTIPOLES>
932.98
15.53
3.96
2.75
6.19
0.14
2.31
5
-6.69
-0.75
-0.69
-0.71
-0.12
-0.28

> <PUBCHEM_SHAPE_SELFOVERLAP>
2046.062

> <PUBCHEM_SHAPE_VOLUME>
494.2

> <PUBCHEM_COORDINATE_TYPE>
2
5
10

$$$$
