71456946
  -OEChem-08242017153D

 57 62  0     1  0  0  0  0  0999 V2000
   -0.8694   -2.9326    0.3278 O   0  0  0  0  0  0  0  0  0  0  0  0
    2.2695    1.7104   -1.7367 O   0  0  0  0  0  0  0  0  0  0  0  0
    4.1251   -2.1329   -0.0595 O   0  0  0  0  0  0  0  0  0  0  0  0
   -2.3591    0.1697    1.2377 N   0  0  2  0  0  0  0  0  0  0  0  0
   -0.6275   -0.6205   -0.4288 C   0  0  2  0  0  0  0  0  0  0  0  0
    1.3130    0.7146    0.3403 C   0  0  2  0  0  0  0  0  0  0  0  0
   -0.0870    1.3110    0.6102 C   0  0  2  0  0  0  0  0  0  0  0  0
   -0.9274    0.0344    0.9392 C   0  0  1  0  0  0  0  0  0  0  0  0
    0.9563   -0.5595   -0.5074 C   0  0  1  0  0  0  0  0  0  0  0  0
   -1.2294    0.5001   -1.3478 C   0  0  2  0  0  0  0  0  0  0  0  0
   -0.6755    1.8040   -0.7207 C   0  0  0  0  0  0  0  0  0  0  0  0
   -2.7778    0.4639   -1.2546 C   0  0  2  0  0  0  0  0  0  0  0  0
   -1.2192   -2.0157   -0.7060 C   0  0  2  0  0  0  0  0  0  0  0  0
    2.0640    0.3388    1.6401 C   0  0  0  0  0  0  0  0  0  0  0  0
    2.3856    1.6253   -0.3285 C   0  0  1  0  0  0  0  0  0  0  0  0
    1.7432   -1.7938   -0.0327 C   0  0  0  0  0  0  0  0  0  0  0  0
   -3.1953    0.8009    0.2076 C   0  0  0  0  0  0  0  0  0  0  0  0
   -3.2823   -0.9303   -1.6879 C   0  0  0  0  0  0  0  0  0  0  0  0
    3.3967   -0.1287    1.0659 C   0  0  2  0  0  0  0  0  0  0  0  0
   -2.7381   -2.0619   -0.8391 C   0  0  0  0  0  0  0  0  0  0  0  0
    3.6838    0.9495    0.0595 C   0  0  0  0  0  0  0  0  0  0  0  0
    3.1827   -1.4237    0.2905 C   0  0  0  0  0  0  0  0  0  0  0  0
   -3.4111    1.4926   -2.2144 C   0  0  0  0  0  0  0  0  0  0  0  0
   -2.5875    0.7747    2.5466 C   0  0  0  0  0  0  0  0  0  0  0  0
    4.9047    1.2830   -0.3757 C   0  0  0  0  0  0  0  0  0  0  0  0
   -4.0378    0.6266    2.9744 C   0  0  0  0  0  0  0  0  0  0  0  0
   -0.0850    2.0737    1.3931 H   0  0  0  0  0  0  0  0  0  0  0  0
   -0.4794   -0.5596    1.7426 H   0  0  0  0  0  0  0  0  0  0  0  0
    1.2198   -0.4129   -1.5625 H   0  0  0  0  0  0  0  0  0  0  0  0
   -0.8974    0.3878   -2.3869 H   0  0  0  0  0  0  0  0  0  0  0  0
   -1.4325    2.5713   -0.5435 H   0  0  0  0  0  0  0  0  0  0  0  0
    0.0499    2.2825   -1.3783 H   0  0  0  0  0  0  0  0  0  0  0  0
   -0.7804   -2.3899   -1.6398 H   0  0  0  0  0  0  0  0  0  0  0  0
    1.5786   -0.4349    2.2413 H   0  0  0  0  0  0  0  0  0  0  0  0
    2.1947    1.2176    2.2860 H   0  0  0  0  0  0  0  0  0  0  0  0
    2.3393    2.6333    0.1020 H   0  0  0  0  0  0  0  0  0  0  0  0
    1.7377   -2.5673   -0.8080 H   0  0  0  0  0  0  0  0  0  0  0  0
    1.3276   -2.2267    0.8817 H   0  0  0  0  0  0  0  0  0  0  0  0
   -4.2369    0.4798    0.3358 H   0  0  0  0  0  0  0  0  0  0  0  0
   -3.2040    1.8896    0.3478 H   0  0  0  0  0  0  0  0  0  0  0  0
   -2.9994   -1.1108   -2.7338 H   0  0  0  0  0  0  0  0  0  0  0  0
   -4.3789   -0.9633   -1.6576 H   0  0  0  0  0  0  0  0  0  0  0  0
    4.1608   -0.2564    1.8364 H   0  0  0  0  0  0  0  0  0  0  0  0
   -3.2132   -2.0641    0.1494 H   0  0  0  0  0  0  0  0  0  0  0  0
   -3.0315   -3.0231   -1.2811 H   0  0  0  0  0  0  0  0  0  0  0  0
   -3.1190    2.5199   -1.9764 H   0  0  0  0  0  0  0  0  0  0  0  0
   -4.5053    1.4479   -2.1681 H   0  0  0  0  0  0  0  0  0  0  0  0
   -3.1127    1.2988   -3.2510 H   0  0  0  0  0  0  0  0  0  0  0  0
   -2.3005    1.8331    2.5602 H   0  0  0  0  0  0  0  0  0  0  0  0
   -1.9720    0.2658    3.2988 H   0  0  0  0  0  0  0  0  0  0  0  0
   -1.1951   -3.8110    0.0671 H   0  0  0  0  0  0  0  0  0  0  0  0
    2.8916    2.3902   -2.0464 H   0  0  0  0  0  0  0  0  0  0  0  0
    5.0482    2.0904   -1.0851 H   0  0  0  0  0  0  0  0  0  0  0  0
    5.7853    0.7547   -0.0264 H   0  0  0  0  0  0  0  0  0  0  0  0
   -4.7110    1.2649    2.3936 H   0  0  0  0  0  0  0  0  0  0  0  0
   -4.3777   -0.4114    2.8911 H   0  0  0  0  0  0  0  0  0  0  0  0
   -4.1442    0.9239    4.0235 H   0  0  0  0  0  0  0  0  0  0  0  0
  1 13  1  0  0  0  0
  1 51  1  0  0  0  0
  2 15  1  0  0  0  0
  2 52  1  0  0  0  0
  3 22  2  0  0  0  0
  4  8  1  0  0  0  0
  4 17  1  0  0  0  0
  4 24  1  0  0  0  0
  5  8  1  0  0  0  0
  5  9  1  0  0  0  0
  5 10  1  0  0  0  0
  5 13  1  0  0  0  0
  6  7  1  0  0  0  0
  6  9  1  0  0  0  0
  6 14  1  0  0  0  0
  6 15  1  0  0  0  0
  7  8  1  0  0  0  0
  7 11  1  0  0  0  0
  7 27  1  0  0  0  0
  8 28  1  0  0  0  0
  9 16  1  0  0  0  0
  9 29  1  0  0  0  0
 10 11  1  0  0  0  0
 10 12  1  0  0  0  0
 10 30  1  0  0  0  0
 11 31  1  0  0  0  0
 11 32  1  0  0  0  0
 12 17  1  0  0  0  0
 12 18  1  0  0  0  0
 12 23  1  0  0  0  0
 13 20  1  0  0  0  0
 13 33  1  0  0  0  0
 14 19  1  0  0  0  0
 14 34  1  0  0  0  0
 14 35  1  0  0  0  0
 15 21  1  0  0  0  0
 15 36  1  0  0  0  0
 16 22  1  0  0  0  0
 16 37  1  0  0  0  0
 16 38  1  0  0  0  0
 17 39  1  0  0  0  0
 17 40  1  0  0  0  0
 18 20  1  0  0  0  0
 18 41  1  0  0  0  0
 18 42  1  0  0  0  0
 19 21  1  0  0  0  0
 19 22  1  0  0  0  0
 19 43  1  0  0  0  0
 20 44  1  0  0  0  0
 20 45  1  0  0  0  0
 21 25  2  0  0  0  0
 23 46  1  0  0  0  0
 23 47  1  0  0  0  0
 23 48  1  0  0  0  0
 24 26  1  0  0  0  0
 24 49  1  0  0  0  0
 24 50  1  0  0  0  0
 25 53  1  0  0  0  0
 25 54  1  0  0  0  0
 26 55  1  0  0  0  0
 26 56  1  0  0  0  0
 26 57  1  0  0  0  0
M  END
> <PUBCHEM_COMPOUND_CID>
71456946

> <PUBCHEM_CONFORMER_RMSD>
0.6

> <PUBCHEM_CONFORMER_DIVERSEORDER>
1

> <PUBCHEM_MMFF94_PARTIAL_CHARGES>
18
1 -0.68
13 0.28
15 0.42
16 0.06
17 0.27
19 0.2
2 -0.68
21 -0.28
22 0.45
24 0.27
25 -0.3
3 -0.57
4 -0.81
51 0.4
52 0.4
53 0.15
54 0.15
8 0.27

> <PUBCHEM_EFFECTIVE_ROTOR_COUNT>
2.8

> <PUBCHEM_PHARMACOPHORE_FEATURES>
10
1 1 acceptor
1 1 donor
1 2 acceptor
1 2 donor
1 3 acceptor
1 4 cation
6 5 10 12 13 18 20 rings
7 5 6 7 8 9 10 11 rings
8 4 5 7 8 10 11 12 17 rings
8 6 9 14 15 16 19 21 22 rings

> <PUBCHEM_HEAVY_ATOM_COUNT>
26

> <PUBCHEM_ATOM_DEF_STEREO_COUNT>
10

> <PUBCHEM_ATOM_UDEF_STEREO_COUNT>
0

> <PUBCHEM_BOND_DEF_STEREO_COUNT>
0

> <PUBCHEM_BOND_UDEF_STEREO_COUNT>
0

> <PUBCHEM_ISOTOPIC_ATOM_COUNT>
0

> <PUBCHEM_COMPONENT_COUNT>
1

> <PUBCHEM_CACTVS_TAUTO_COUNT>
2

> <PUBCHEM_CONFORMER_ID>
044258B200000001

> <PUBCHEM_MMFF94_ENERGY>
117.2252

> <PUBCHEM_FEATURE_SELFOVERLAP>
53.175

> <PUBCHEM_SHAPE_FINGERPRINT>
10369192 42 16518813781600016332
10863032 1 18270666649644999734
10948715 1 17678719177717960029
11315181 36 17846211211767330936
11578080 2 18124853880183681889
11640471 11 17344917313080778809
12403814 3 18187086195597361917
12553582 1 18342739615798440376
12592029 89 18189318088353908675
12633257 1 18129662976818937154
13140716 1 18343027666027391130
13224815 77 18341889723189992718
13583140 156 16732975444744456776
14787075 74 16909722136325054536
15238133 3 16916235355924973056
15309172 13 18409448063790877611
16752209 62 18197475515085655247
16945 1 18411974771803391048
17349148 13 17917981772249219775
1813 80 17911818872917654622
18981168 100 15068618331212562870
19862831 5 17988635324477583684
200 152 17345729959168118359
20691752 17 18334867116738298110
21756936 100 17703524249965926592
22182313 1 17749115474000122632
23419403 2 14709746678318491455
23557571 272 14707488152243369441
23559900 14 18269253704859179026
296302 2 16950552307802512788
3633792 109 18128798781758527532
427121 178 16842516425740286059
4340502 62 18130240246820506081
463206 1 17340664685130304535
9709674 26 18336534014978683126

> <PUBCHEM_SHAPE_MULTIPOLES>
512.48
7.47
2.29
2.1
4.07
1.42
-0.46
-1.03
-0.21
-0.15
-0.18
-2.5
-1.1
-1.4

> <PUBCHEM_SHAPE_SELFOVERLAP>
1149.223

> <PUBCHEM_SHAPE_VOLUME>
272.2

> <PUBCHEM_COORDINATE_TYPE>
2
5
10

$$$$
