5487064
  -OEChem-08242017133D

 73 79  0     1  0  0  0  0  0999 V2000
   -1.5687   -0.6407    1.1341 O   0  0  0  0  0  0  0  0  0  0  0  0
   -0.9916    1.6756    2.4142 O   0  0  0  0  0  0  0  0  0  0  0  0
    3.3217    0.3509   -2.0618 O   0  0  0  0  0  0  0  0  0  0  0  0
   -0.2846    4.0596   -0.6338 O   0  0  0  0  0  0  0  0  0  0  0  0
   -2.2890    3.1176   -0.1180 O   0  0  0  0  0  0  0  0  0  0  0  0
   -2.1143   -2.8679    0.9301 O   0  0  0  0  0  0  0  0  0  0  0  0
    2.9194   -1.0647    0.9112 N   0  0  2  0  0  0  0  0  0  0  0  0
    1.2922   -0.1304   -0.7420 C   0  0  2  0  0  0  0  0  0  0  0  0
    0.3503   -1.3083   -0.2772 C   0  0  1  0  0  0  0  0  0  0  0  0
    2.0246    0.0796    0.6283 C   0  0  1  0  0  0  0  0  0  0  0  0
    0.8086    0.2323    1.6185 C   0  0  2  0  0  0  0  0  0  0  0  0
    0.4367    1.1782   -1.1473 C   0  0  1  0  0  0  0  0  0  0  0  0
    1.1880   -2.6140   -0.1199 C   0  0  2  0  0  0  0  0  0  0  0  0
   -0.1761   -0.8845    1.1264 C   0  0  1  0  0  0  0  0  0  0  0  0
    0.1315    1.6304    1.5374 C   0  0  1  0  0  0  0  0  0  0  0  0
   -0.2804    1.7632    0.0758 C   0  0  1  0  0  0  0  0  0  0  0  0
    2.2001   -0.5247   -1.9544 C   0  0  2  0  0  0  0  0  0  0  0  0
    2.2684   -2.3835    0.9826 C   0  0  0  0  0  0  0  0  0  0  0  0
    1.8161   -2.9764   -1.4791 C   0  0  0  0  0  0  0  0  0  0  0  0
    1.2836    2.4691   -1.6984 C   0  0  0  0  0  0  0  0  0  0  0  0
    2.7849   -1.9321   -1.9729 C   0  0  0  0  0  0  0  0  0  0  0  0
    1.0519    2.9178    1.8937 C   0  0  0  0  0  0  0  0  0  0  0  0
    1.1328    3.7783   -0.7708 C   0  0  2  0  0  0  0  0  0  0  0  0
    0.2973   -3.8157    0.2720 C   0  0  0  0  0  0  0  0  0  0  0  0
    1.8061    3.6933    0.6888 C   0  0  0  0  0  0  0  0  0  0  0  0
   -1.0746    3.0118   -0.2427 C   0  0  0  0  0  0  0  0  0  0  0  0
    3.7752   -0.8303    2.0697 C   0  0  0  0  0  0  0  0  0  0  0  0
    4.8494   -1.8985    2.1839 C   0  0  0  0  0  0  0  0  0  0  0  0
   -2.3687   -1.6846    0.7677 C   0  0  0  0  0  0  0  0  0  0  0  0
    4.0412    0.1230   -3.2636 C   0  0  0  0  0  0  0  0  0  0  0  0
   -3.6187   -1.2003    0.1296 C   0  0  0  0  0  0  0  0  0  0  0  0
   -4.2279   -1.9877   -0.8259 C   0  0  0  0  0  0  0  0  0  0  0  0
   -4.1329    0.0217    0.5122 C   0  0  0  0  0  0  0  0  0  0  0  0
   -5.4025   -1.5330   -1.4254 C   0  0  0  0  0  0  0  0  0  0  0  0
   -5.3076    0.4761   -0.0872 C   0  0  0  0  0  0  0  0  0  0  0  0
   -5.9423   -0.3013   -1.0559 C   0  0  0  0  0  0  0  0  0  0  0  0
   -0.4519   -1.4529   -1.0101 H   0  0  0  0  0  0  0  0  0  0  0  0
    2.6268    0.9909    0.5886 H   0  0  0  0  0  0  0  0  0  0  0  0
    1.0947    0.0484    2.6601 H   0  0  0  0  0  0  0  0  0  0  0  0
   -0.2751    0.9073   -1.9392 H   0  0  0  0  0  0  0  0  0  0  0  0
   -0.0576   -1.6861    1.8612 H   0  0  0  0  0  0  0  0  0  0  0  0
   -1.1635    1.1160    0.0224 H   0  0  0  0  0  0  0  0  0  0  0  0
    1.5782   -0.4163   -2.8549 H   0  0  0  0  0  0  0  0  0  0  0  0
    1.8383   -2.5348    1.9807 H   0  0  0  0  0  0  0  0  0  0  0  0
    3.0185   -3.1752    0.8628 H   0  0  0  0  0  0  0  0  0  0  0  0
    1.0226   -3.1115   -2.2266 H   0  0  0  0  0  0  0  0  0  0  0  0
    2.3431   -3.9371   -1.4148 H   0  0  0  0  0  0  0  0  0  0  0  0
    0.8860    2.7088   -2.6920 H   0  0  0  0  0  0  0  0  0  0  0  0
    2.3469    2.2752   -1.7926 H   0  0  0  0  0  0  0  0  0  0  0  0
    3.7184   -1.9857   -1.3989 H   0  0  0  0  0  0  0  0  0  0  0  0
    3.0675   -2.2136   -2.9957 H   0  0  0  0  0  0  0  0  0  0  0  0
    1.7911    2.6353    2.6524 H   0  0  0  0  0  0  0  0  0  0  0  0
    0.4004    3.6621    2.3721 H   0  0  0  0  0  0  0  0  0  0  0  0
    1.5880    4.6179   -1.3082 H   0  0  0  0  0  0  0  0  0  0  0  0
    0.8844   -4.7426    0.2269 H   0  0  0  0  0  0  0  0  0  0  0  0
   -0.0587   -3.7642    1.3027 H   0  0  0  0  0  0  0  0  0  0  0  0
   -0.5323   -3.9458   -0.4295 H   0  0  0  0  0  0  0  0  0  0  0  0
    2.8082    3.2659    0.5725 H   0  0  0  0  0  0  0  0  0  0  0  0
    1.9460    4.7235    1.0408 H   0  0  0  0  0  0  0  0  0  0  0  0
    4.2820    0.1361    1.9583 H   0  0  0  0  0  0  0  0  0  0  0  0
    3.2018   -0.7879    3.0029 H   0  0  0  0  0  0  0  0  0  0  0  0
   -1.5954    0.9491    2.1942 H   0  0  0  0  0  0  0  0  0  0  0  0
    4.4472   -2.8612    2.5141 H   0  0  0  0  0  0  0  0  0  0  0  0
    5.3786   -2.0420    1.2355 H   0  0  0  0  0  0  0  0  0  0  0  0
    5.5918   -1.5938    2.9300 H   0  0  0  0  0  0  0  0  0  0  0  0
    4.6615    1.0061   -3.4459 H   0  0  0  0  0  0  0  0  0  0  0  0
    4.7240   -0.7260   -3.1676 H   0  0  0  0  0  0  0  0  0  0  0  0
    3.3791    0.0013   -4.1271 H   0  0  0  0  0  0  0  0  0  0  0  0
   -3.8148   -2.9467   -1.1244 H   0  0  0  0  0  0  0  0  0  0  0  0
   -3.6690    0.6393    1.2742 H   0  0  0  0  0  0  0  0  0  0  0  0
   -5.8964   -2.1378   -2.1803 H   0  0  0  0  0  0  0  0  0  0  0  0
   -5.7299    1.4339    0.2026 H   0  0  0  0  0  0  0  0  0  0  0  0
   -6.8572    0.0525   -1.5222 H   0  0  0  0  0  0  0  0  0  0  0  0
  1 14  1  0  0  0  0
  1 29  1  0  0  0  0
  2 15  1  0  0  0  0
  2 62  1  0  0  0  0
  3 17  1  0  0  0  0
  3 30  1  0  0  0  0
  4 23  1  0  0  0  0
  4 26  1  0  0  0  0
  5 26  2  0  0  0  0
  6 29  2  0  0  0  0
  7 10  1  0  0  0  0
  7 18  1  0  0  0  0
  7 27  1  0  0  0  0
  8  9  1  0  0  0  0
  8 10  1  0  0  0  0
  8 12  1  0  0  0  0
  8 17  1  0  0  0  0
  9 13  1  0  0  0  0
  9 14  1  0  0  0  0
  9 37  1  0  0  0  0
 10 11  1  0  0  0  0
 10 38  1  0  0  0  0
 11 14  1  0  0  0  0
 11 15  1  0  0  0  0
 11 39  1  0  0  0  0
 12 16  1  0  0  0  0
 12 20  1  0  0  0  0
 12 40  1  0  0  0  0
 13 18  1  0  0  0  0
 13 19  1  0  0  0  0
 13 24  1  0  0  0  0
 14 41  1  0  0  0  0
 15 16  1  0  0  0  0
 15 22  1  0  0  0  0
 16 26  1  0  0  0  0
 16 42  1  0  0  0  0
 17 21  1  0  0  0  0
 17 43  1  0  0  0  0
 18 44  1  0  0  0  0
 18 45  1  0  0  0  0
 19 21  1  0  0  0  0
 19 46  1  0  0  0  0
 19 47  1  0  0  0  0
 20 23  1  0  0  0  0
 20 48  1  0  0  0  0
 20 49  1  0  0  0  0
 21 50  1  0  0  0  0
 21 51  1  0  0  0  0
 22 25  1  0  0  0  0
 22 52  1  0  0  0  0
 22 53  1  0  0  0  0
 23 25  1  0  0  0  0
 23 54  1  0  0  0  0
 24 55  1  0  0  0  0
 24 56  1  0  0  0  0
 24 57  1  0  0  0  0
 25 58  1  0  0  0  0
 25 59  1  0  0  0  0
 27 28  1  0  0  0  0
 27 60  1  0  0  0  0
 27 61  1  0  0  0  0
 28 63  1  0  0  0  0
 28 64  1  0  0  0  0
 28 65  1  0  0  0  0
 29 31  1  0  0  0  0
 30 66  1  0  0  0  0
 30 67  1  0  0  0  0
 30 68  1  0  0  0  0
 31 32  2  0  0  0  0
 31 33  1  0  0  0  0
 32 34  1  0  0  0  0
 32 69  1  0  0  0  0
 33 35  2  0  0  0  0
 33 70  1  0  0  0  0
 34 36  2  0  0  0  0
 34 71  1  0  0  0  0
 35 36  1  0  0  0  0
 35 72  1  0  0  0  0
 36 73  1  0  0  0  0
M  END
> <PUBCHEM_COMPOUND_CID>
5487064

> <PUBCHEM_CONFORMER_RMSD>
1

> <PUBCHEM_CONFORMER_DIVERSEORDER>
1
3
2

> <PUBCHEM_MMFF94_PARTIAL_CHARGES>
30
1 -0.43
10 0.27
14 0.28
15 0.28
16 0.06
17 0.28
18 0.27
2 -0.68
23 0.28
26 0.66
27 0.27
29 0.63
3 -0.56
30 0.28
31 0.09
32 -0.15
33 -0.15
34 -0.15
35 -0.15
36 -0.15
4 -0.43
5 -0.57
6 -0.57
62 0.4
69 0.15
7 -0.81
70 0.15
71 0.15
72 0.15
73 0.15

> <PUBCHEM_EFFECTIVE_ROTOR_COUNT>
7

> <PUBCHEM_PHARMACOPHORE_FEATURES>
11
1 2 acceptor
1 2 donor
1 3 acceptor
1 5 acceptor
1 6 acceptor
1 7 cation
6 31 32 33 34 35 36 rings
6 8 9 13 17 19 21 rings
8 7 8 9 10 11 13 14 18 rings
8 8 9 10 11 12 14 15 16 rings
9 4 12 15 16 20 22 23 25 26 rings

> <PUBCHEM_HEAVY_ATOM_COUNT>
36

> <PUBCHEM_ATOM_DEF_STEREO_COUNT>
6

> <PUBCHEM_ATOM_UDEF_STEREO_COUNT>
5

> <PUBCHEM_BOND_DEF_STEREO_COUNT>
0

> <PUBCHEM_BOND_UDEF_STEREO_COUNT>
0

> <PUBCHEM_ISOTOPIC_ATOM_COUNT>
0

> <PUBCHEM_COMPONENT_COUNT>
1

> <PUBCHEM_CACTVS_TAUTO_COUNT>
1

> <PUBCHEM_CONFORMER_ID>
0053B9D800000001

> <PUBCHEM_MMFF94_ENERGY>
204.2655

> <PUBCHEM_FEATURE_SELFOVERLAP>
57.322

> <PUBCHEM_SHAPE_FINGERPRINT>
10169797 241 18050012387513908435
10369192 42 17131249356236809834
10930396 42 18269252695990056778
11578080 2 17843964732853447962
11582403 64 15549356876934033625
11828532 37 17968368036251146743
12035759 4 18189357730442848780
12160290 23 17833568798614833601
12422481 6 18049127211543344904
12553582 1 18337406967213028531
12788726 201 18263094218480286757
13004483 165 18043507483254629402
13134695 92 18115571751302352579
14068700 675 17988936547756119292
14537116 161 18193255435941937013
15210252 30 18187940455860210037
15238133 3 18261388923638912271
15439362 3 18118670248416549193
20600515 1 18410849966981483386
20691752 17 18270415913844750450
20764821 26 18120929504519605431
2132832 1 17896039837149686222
21857420 4 18119783869180574885
21860390 5 18341325682346761039
22393880 68 18194689395839517383
23419403 2 17825914196489267044
238 59 17981047732526903623
26353 1 18269292195949410629
3052486 1 18117550730957273577
3380486 145 18123193406934355945
3380486 77 18335138691599302378
35225 105 17405706982939531543
46194498 28 18050584129280579023
513532 50 18199744928728714693

> <PUBCHEM_SHAPE_MULTIPOLES>
700.67
8.3
4.84
2.39
12.02
3.04
0.68
-4.69
1.9
-1.44
-0.06
-3.08
-0.05
-0.68

> <PUBCHEM_SHAPE_SELFOVERLAP>
1540.875

> <PUBCHEM_SHAPE_VOLUME>
365.6

> <PUBCHEM_COORDINATE_TYPE>
2
5
10

$$$$
