10085878
  -OEChem-09062014253D

 43 45  0     0  0  0  0  0  0999 V2000
   -2.1654   -2.4468   -0.0282 O   0  0  0  0  0  0  0  0  0  0  0  0
    0.0149   -3.9369    0.2868 O   0  0  0  0  0  0  0  0  0  0  0  0
    4.9627    0.6619   -0.2937 N   0  0  0  0  0  0  0  0  0  0  0  0
    0.3739    0.2088    0.4126 C   0  0  0  0  0  0  0  0  0  0  0  0
    1.4946   -0.6240    0.5725 C   0  0  0  0  0  0  0  0  0  0  0  0
   -0.9149   -0.3471    0.2024 C   0  0  0  0  0  0  0  0  0  0  0  0
    2.8730   -0.0783    0.7955 C   0  0  0  0  0  0  0  0  0  0  0  0
   -2.0424    0.5341    0.0425 C   0  0  0  0  0  0  0  0  0  0  0  0
    3.6147    0.1537   -0.5252 C   0  0  0  0  0  0  0  0  0  0  0  0
   -0.9993   -1.7615    0.1646 C   0  0  0  0  0  0  0  0  0  0  0  0
   -1.8378    1.9375    0.0994 C   0  0  0  0  0  0  0  0  0  0  0  0
    1.3707   -2.0092    0.5290 C   0  0  0  0  0  0  0  0  0  0  0  0
    0.5355    1.5958    0.4622 C   0  0  0  0  0  0  0  0  0  0  0  0
    0.1233   -2.5784    0.3250 C   0  0  0  0  0  0  0  0  0  0  0  0
   -0.5537    2.4470    0.3080 C   0  0  0  0  0  0  0  0  0  0  0  0
   -3.3724    0.0933   -0.1722 C   0  0  0  0  0  0  0  0  0  0  0  0
   -2.9174    2.8243   -0.0528 C   0  0  0  0  0  0  0  0  0  0  0  0
   -4.4370    0.9860   -0.3220 C   0  0  0  0  0  0  0  0  0  0  0  0
    4.9146    1.9565    0.3873 C   0  0  0  0  0  0  0  0  0  0  0  0
    5.6925    0.7789   -1.5570 C   0  0  0  0  0  0  0  0  0  0  0  0
   -4.2094    2.3521   -0.2622 C   0  0  0  0  0  0  0  0  0  0  0  0
   -2.5207   -2.7480   -1.3745 C   0  0  0  0  0  0  0  0  0  0  0  0
    2.8261    0.8005    1.4427 H   0  0  0  0  0  0  0  0  0  0  0  0
    3.4475   -0.8002    1.3952 H   0  0  0  0  0  0  0  0  0  0  0  0
    3.0433    0.8356   -1.1694 H   0  0  0  0  0  0  0  0  0  0  0  0
    3.6755   -0.8026   -1.0618 H   0  0  0  0  0  0  0  0  0  0  0  0
    2.2449   -2.6441    0.6508 H   0  0  0  0  0  0  0  0  0  0  0  0
    1.4976    2.0791    0.5994 H   0  0  0  0  0  0  0  0  0  0  0  0
   -0.3830    3.5213    0.3490 H   0  0  0  0  0  0  0  0  0  0  0  0
   -3.6826   -0.9382   -0.1685 H   0  0  0  0  0  0  0  0  0  0  0  0
   -2.7597    3.9005   -0.0083 H   0  0  0  0  0  0  0  0  0  0  0  0
   -5.4451    0.6092   -0.4701 H   0  0  0  0  0  0  0  0  0  0  0  0
    4.6081    1.8591    1.4327 H   0  0  0  0  0  0  0  0  0  0  0  0
    4.2543    2.6712   -0.1173 H   0  0  0  0  0  0  0  0  0  0  0  0
    5.9161    2.4024    0.4284 H   0  0  0  0  0  0  0  0  0  0  0  0
    6.7221    1.1087   -1.3786 H   0  0  0  0  0  0  0  0  0  0  0  0
    5.2169    1.4872   -2.2452 H   0  0  0  0  0  0  0  0  0  0  0  0
    5.7596   -0.1948   -2.0552 H   0  0  0  0  0  0  0  0  0  0  0  0
   -5.0338    3.0496   -0.3743 H   0  0  0  0  0  0  0  0  0  0  0  0
    0.8944   -4.3317    0.4158 H   0  0  0  0  0  0  0  0  0  0  0  0
   -2.3547   -1.8972   -2.0439 H   0  0  0  0  0  0  0  0  0  0  0  0
   -3.5795   -3.0205   -1.4025 H   0  0  0  0  0  0  0  0  0  0  0  0
   -1.9384   -3.6045   -1.7284 H   0  0  0  0  0  0  0  0  0  0  0  0
  1 10  1  0  0  0  0
  1 22  1  0  0  0  0
  2 14  1  0  0  0  0
  2 40  1  0  0  0  0
  3  9  1  0  0  0  0
  3 19  1  0  0  0  0
  3 20  1  0  0  0  0
  4  5  1  0  0  0  0
  4  6  2  0  0  0  0
  4 13  1  0  0  0  0
  5  7  1  0  0  0  0
  5 12  2  0  0  0  0
  6  8  1  0  0  0  0
  6 10  1  0  0  0  0
  7  9  1  0  0  0  0
  7 23  1  0  0  0  0
  7 24  1  0  0  0  0
  8 11  1  0  0  0  0
  8 16  2  0  0  0  0
  9 25  1  0  0  0  0
  9 26  1  0  0  0  0
 10 14  2  0  0  0  0
 11 15  1  0  0  0  0
 11 17  2  0  0  0  0
 12 14  1  0  0  0  0
 12 27  1  0  0  0  0
 13 15  2  0  0  0  0
 13 28  1  0  0  0  0
 15 29  1  0  0  0  0
 16 18  1  0  0  0  0
 16 30  1  0  0  0  0
 17 21  1  0  0  0  0
 17 31  1  0  0  0  0
 18 21  2  0  0  0  0
 18 32  1  0  0  0  0
 19 33  1  0  0  0  0
 19 34  1  0  0  0  0
 19 35  1  0  0  0  0
 20 36  1  0  0  0  0
 20 37  1  0  0  0  0
 20 38  1  0  0  0  0
 21 39  1  0  0  0  0
 22 41  1  0  0  0  0
 22 42  1  0  0  0  0
 22 43  1  0  0  0  0
M  END
> <PUBCHEM_COMPOUND_CID>
10085878

> <PUBCHEM_CONFORMER_RMSD>
0.6

> <PUBCHEM_CONFORMER_DIVERSEORDER>
1
12
2
11
3
7
10
4
6
9
5
8

> <PUBCHEM_MMFF94_PARTIAL_CHARGES>
26
1 -0.36
10 0.08
12 -0.15
13 -0.15
14 0.08
15 -0.15
16 -0.15
17 -0.15
18 -0.15
19 0.27
2 -0.53
20 0.27
21 -0.15
22 0.28
27 0.15
28 0.15
29 0.15
3 -0.81
30 0.15
31 0.15
32 0.15
39 0.15
40 0.45
5 -0.14
7 0.14
9 0.27

> <PUBCHEM_EFFECTIVE_ROTOR_COUNT>
4

> <PUBCHEM_PHARMACOPHORE_FEATURES>
6
1 1 acceptor
1 2 donor
1 3 cation
6 4 5 6 10 12 14 rings
6 4 6 8 11 13 15 rings
6 8 11 16 17 18 21 rings

> <PUBCHEM_HEAVY_ATOM_COUNT>
22

> <PUBCHEM_ATOM_DEF_STEREO_COUNT>
0

> <PUBCHEM_ATOM_UDEF_STEREO_COUNT>
0

> <PUBCHEM_BOND_DEF_STEREO_COUNT>
0

> <PUBCHEM_BOND_UDEF_STEREO_COUNT>
0

> <PUBCHEM_ISOTOPIC_ATOM_COUNT>
0

> <PUBCHEM_COMPONENT_COUNT>
1

> <PUBCHEM_CACTVS_TAUTO_COUNT>
6

> <PUBCHEM_CONFORMER_ID>
0099E5F600000001

> <PUBCHEM_MMFF94_ENERGY>
90.9052

> <PUBCHEM_FEATURE_SELFOVERLAP>
30.495

> <PUBCHEM_SHAPE_FINGERPRINT>
10319926 262 18197755887279073624
10411042 1 17472699603761266562
10498660 4 18410572894615081248
10759866 29 18114742633899291066
10871710 139 18337389443445897543
10967382 1 18195798584112565235
1100329 8 18339081617737767369
12173636 292 18409725175465885660
12390115 104 18341065041976860721
12403814 3 17458337524911589285
12553582 1 18122336041352533234
12788726 201 18191015901378786426
13140716 1 18267573784098293257
13583140 156 16805608079037492240
138480 1 17401765224821336339
14767858 380 18338221739915718445
14790565 3 18340210678614283697
15196674 1 18337950070032962729
15415430 112 18412543236257190209
16087824 20 18411133659569671015
16752209 62 18338227288644549970
16945 1 18268973363505388707
17492 54 18337375085923842349
19591789 44 18411416176793534969
20871999 31 18340767151888111870
22182313 1 18266766651900265242
22620623 9 17988077902078656622
23227448 37 18339642347245915756
2334 1 17978497960766721011
23366157 5 17755865212263066330
23402539 116 18411696630227405700
23557571 272 18127696135490336520
23559900 14 17906721510460317642
25147074 1 18188755189924452946
2748010 2 18051115184653391969
350125 39 18337393863389179769
3759504 43 18113341924488508906
394222 165 17969499312459746154
458136 41 18195817266708704097
474 4 17603313639530055196
7364860 26 17836077875480491947
9981440 41 18334294236477435314

> <PUBCHEM_SHAPE_MULTIPOLES>
436.03
9
3.86
0.93
10.05
2.5
0.26
-6.72
3.13
-2.45
0.04
0.63
0.15
-0.61

> <PUBCHEM_SHAPE_SELFOVERLAP>
951.653

> <PUBCHEM_SHAPE_VOLUME>
239.8

> <PUBCHEM_COORDINATE_TYPE>
2
5
10

$$$$
