333544
  -OEChem-09062014553D

 46 50  0     1  0  0  0  0  0999 V2000
   -1.4901    3.0259    0.2428 O   0  0  0  0  0  0  0  0  0  0  0  0
   -3.8620    2.6739    0.3038 O   0  0  0  0  0  0  0  0  0  0  0  0
    3.5470   -1.2877    0.5449 O   0  0  0  0  0  0  0  0  0  0  0  0
    4.7492    1.0863   -0.1396 O   0  0  0  0  0  0  0  0  0  0  0  0
   -1.2146   -3.1510    0.0202 N   0  0  1  0  0  0  0  0  0  0  0  0
   -0.5555   -1.8632   -0.3186 C   0  0  1  0  0  0  0  0  0  0  0  0
   -1.4794   -0.6498   -0.1478 C   0  0  0  0  0  0  0  0  0  0  0  0
    0.7117   -1.6350    0.5375 C   0  0  0  0  0  0  0  0  0  0  0  0
   -2.8860   -0.8337   -0.1112 C   0  0  0  0  0  0  0  0  0  0  0  0
   -0.9059    0.6512   -0.0766 C   0  0  0  0  0  0  0  0  0  0  0  0
   -2.4998   -3.2568   -0.6881 C   0  0  0  0  0  0  0  0  0  0  0  0
   -3.4778   -2.2157   -0.1544 C   0  0  0  0  0  0  0  0  0  0  0  0
    1.3715   -0.3197    0.1875 C   0  0  0  0  0  0  0  0  0  0  0  0
    0.5670    0.7979   -0.1270 C   0  0  0  0  0  0  0  0  0  0  0  0
   -1.8028    1.7062    0.0822 C   0  0  0  0  0  0  0  0  0  0  0  0
   -3.7378    0.2654    0.0367 C   0  0  0  0  0  0  0  0  0  0  0  0
   -3.1682    1.5145    0.1329 C   0  0  0  0  0  0  0  0  0  0  0  0
   -0.3823   -4.3080   -0.3276 C   0  0  0  0  0  0  0  0  0  0  0  0
    2.7715   -0.2187    0.2001 C   0  0  0  0  0  0  0  0  0  0  0  0
    1.2225    1.9862   -0.4924 C   0  0  0  0  0  0  0  0  0  0  0  0
    3.3918    0.9784   -0.1407 C   0  0  0  0  0  0  0  0  0  0  0  0
    2.6181    2.0766   -0.4962 C   0  0  0  0  0  0  0  0  0  0  0  0
   -2.7901    3.6289    0.3641 C   0  0  0  0  0  0  0  0  0  0  0  0
    3.8764   -1.4279    1.9242 C   0  0  0  0  0  0  0  0  0  0  0  0
    5.4257    0.7758   -1.3565 C   0  0  0  0  0  0  0  0  0  0  0  0
   -0.2708   -1.8785   -1.3822 H   0  0  0  0  0  0  0  0  0  0  0  0
    1.4198   -2.4502    0.3627 H   0  0  0  0  0  0  0  0  0  0  0  0
    0.4670   -1.6282    1.6079 H   0  0  0  0  0  0  0  0  0  0  0  0
   -2.9487   -4.2457   -0.5308 H   0  0  0  0  0  0  0  0  0  0  0  0
   -2.3609   -3.1344   -1.7710 H   0  0  0  0  0  0  0  0  0  0  0  0
   -3.7871   -2.4879    0.8630 H   0  0  0  0  0  0  0  0  0  0  0  0
   -4.3738   -2.2175   -0.7867 H   0  0  0  0  0  0  0  0  0  0  0  0
   -4.8142    0.1393    0.0894 H   0  0  0  0  0  0  0  0  0  0  0  0
    0.5149   -4.3595    0.2957 H   0  0  0  0  0  0  0  0  0  0  0  0
   -0.0813   -4.2995   -1.3813 H   0  0  0  0  0  0  0  0  0  0  0  0
   -0.9222   -5.2428   -0.1355 H   0  0  0  0  0  0  0  0  0  0  0  0
    0.6685    2.8684   -0.7991 H   0  0  0  0  0  0  0  0  0  0  0  0
    3.0911    3.0133   -0.7791 H   0  0  0  0  0  0  0  0  0  0  0  0
   -2.9183    4.3555   -0.4465 H   0  0  0  0  0  0  0  0  0  0  0  0
   -2.8436    4.1588    1.3219 H   0  0  0  0  0  0  0  0  0  0  0  0
    4.4640   -2.3422    2.0443 H   0  0  0  0  0  0  0  0  0  0  0  0
    2.9720   -1.5121    2.5348 H   0  0  0  0  0  0  0  0  0  0  0  0
    4.4787   -0.5793    2.2634 H   0  0  0  0  0  0  0  0  0  0  0  0
    5.1139    1.4586   -2.1532 H   0  0  0  0  0  0  0  0  0  0  0  0
    5.2320   -0.2602   -1.6520 H   0  0  0  0  0  0  0  0  0  0  0  0
    6.4997    0.8974   -1.1918 H   0  0  0  0  0  0  0  0  0  0  0  0
  1 15  1  0  0  0  0
  1 23  1  0  0  0  0
  2 17  1  0  0  0  0
  2 23  1  0  0  0  0
  3 19  1  0  0  0  0
  3 24  1  0  0  0  0
  4 21  1  0  0  0  0
  4 25  1  0  0  0  0
  5  6  1  0  0  0  0
  5 11  1  0  0  0  0
  5 18  1  0  0  0  0
  6  7  1  0  0  0  0
  6  8  1  0  0  0  0
  6 26  1  0  0  0  0
  7  9  1  0  0  0  0
  7 10  2  0  0  0  0
  8 13  1  0  0  0  0
  8 27  1  0  0  0  0
  8 28  1  0  0  0  0
  9 12  1  0  0  0  0
  9 16  2  0  0  0  0
 10 14  1  0  0  0  0
 10 15  1  0  0  0  0
 11 12  1  0  0  0  0
 11 29  1  0  0  0  0
 11 30  1  0  0  0  0
 12 31  1  0  0  0  0
 12 32  1  0  0  0  0
 13 14  2  0  0  0  0
 13 19  1  0  0  0  0
 14 20  1  0  0  0  0
 15 17  2  0  0  0  0
 16 17  1  0  0  0  0
 16 33  1  0  0  0  0
 18 34  1  0  0  0  0
 18 35  1  0  0  0  0
 18 36  1  0  0  0  0
 19 21  2  0  0  0  0
 20 22  2  0  0  0  0
 20 37  1  0  0  0  0
 21 22  1  0  0  0  0
 22 38  1  0  0  0  0
 23 39  1  0  0  0  0
 23 40  1  0  0  0  0
 24 41  1  0  0  0  0
 24 42  1  0  0  0  0
 24 43  1  0  0  0  0
 25 44  1  0  0  0  0
 25 45  1  0  0  0  0
 25 46  1  0  0  0  0
M  END
> <PUBCHEM_COMPOUND_CID>
333544

> <PUBCHEM_CONFORMER_RMSD>
0.6

> <PUBCHEM_CONFORMER_DIVERSEORDER>
1
3
4
2

> <PUBCHEM_MMFF94_PARTIAL_CHARGES>
26
1 -0.36
11 0.27
12 0.14
13 -0.14
15 0.08
16 -0.15
17 0.08
18 0.27
19 0.08
2 -0.36
20 -0.15
21 0.08
22 -0.15
23 0.56
24 0.28
25 0.28
3 -0.36
33 0.15
37 0.15
38 0.15
4 -0.36
5 -0.81
6 0.41
7 -0.14
8 0.14
9 -0.14

> <PUBCHEM_EFFECTIVE_ROTOR_COUNT>
3.4

> <PUBCHEM_PHARMACOPHORE_FEATURES>
10
1 1 acceptor
1 2 acceptor
1 3 acceptor
1 4 acceptor
1 5 cation
5 1 2 15 17 23 rings
6 13 14 19 20 21 22 rings
6 5 6 7 9 11 12 rings
6 6 7 8 10 13 14 rings
6 7 9 10 15 16 17 rings

> <PUBCHEM_HEAVY_ATOM_COUNT>
25

> <PUBCHEM_ATOM_DEF_STEREO_COUNT>
1

> <PUBCHEM_ATOM_UDEF_STEREO_COUNT>
0

> <PUBCHEM_BOND_DEF_STEREO_COUNT>
0

> <PUBCHEM_BOND_UDEF_STEREO_COUNT>
0

> <PUBCHEM_ISOTOPIC_ATOM_COUNT>
0

> <PUBCHEM_COMPONENT_COUNT>
1

> <PUBCHEM_CACTVS_TAUTO_COUNT>
1

> <PUBCHEM_CONFORMER_ID>
000516E800000001

> <PUBCHEM_MMFF94_ENERGY>
96.0076

> <PUBCHEM_FEATURE_SELFOVERLAP>
50.996

> <PUBCHEM_SHAPE_FINGERPRINT>
10319926 262 18199445806480640600
10369192 42 15979459450800730512
10411042 1 17835241529389677094
10616163 171 18339082699990222798
10967382 1 17618502529262945775
1100329 8 18050569547555437234
11513181 2 18202000993250428846
11578080 2 17201353220394972538
12107183 9 17975405824789734466
12173636 292 18412256220915229229
12390115 104 18128554698904531753
12422481 6 17399489261901764698
12553582 1 18123744524458798963
12788726 201 18337388356671809978
12954195 1 18341346560446342500
13140716 1 18410290350402530259
13583140 156 17168704099145657729
138480 1 17042327134565666975
14081887 123 18125985290527530856
14178342 30 18195233434751032995
14363568 33 17404329312102414795
14790565 3 18266188223206605524
15042514 8 18194412306024337475
15196674 1 18336828602252918016
15403338 16 16231100931458032811
15420108 30 17692789520544407955
15442244 35 18408316679622443090
16087824 20 18339363072215347151
16110190 28 17975111173223378714
16752209 62 18341604936561505119
16945 1 18411980290635691975
17492 89 18408884053134450626
18785283 64 17547302103523759329
19591789 44 18122629357579906894
20510252 161 18343868831229871553
20775438 99 16258091137676574647
21267235 1 18193285310436818679
2334 1 18266457796881069223
23366157 5 17757838827419626651
23557571 272 18130235963994546972
23558518 356 18334299776937929546
23559900 14 18198622340331886312
238 59 17032151253250946069
25147074 1 18113612392445026850
2748010 2 16749859223135859276
3091708 16 8981859368960083211
335352 9 18193837037803758436
350125 39 18410014334234417425
352729 6 18411699864016181871
463206 1 17759802941370193155
484989 97 18119802763358953047
5104073 3 18335701602892652720
7064713 232 18196639718829080784
7097593 13 18044639924386257058
7364860 26 17620192036232275859
90525 40 18411419501245999447
9709674 26 18270689787024129158

> <PUBCHEM_SHAPE_MULTIPOLES>
486.03
8.16
4.57
0.92
7.85
1.5
-0.18
-2.15
0.5
-4.48
0.09
1.02
0.25
-1.67

> <PUBCHEM_SHAPE_SELFOVERLAP>
1087.989

> <PUBCHEM_SHAPE_VOLUME>
257.8

> <PUBCHEM_COORDINATE_TYPE>
2
5
10

$$$$
