188442
  -OEChem-09062014183D

 45 48  0     1  0  0  0  0  0999 V2000
    4.4721   -1.6035    0.4913 O   0  0  0  0  0  0  0  0  0  0  0  0
   -4.7506    2.0564    0.6085 O   0  0  0  0  0  0  0  0  0  0  0  0
    5.9551    0.6912    0.1405 O   0  0  0  0  0  0  0  0  0  0  0  0
   -6.0537   -0.1743   -0.4119 O   0  0  0  0  0  0  0  0  0  0  0  0
    0.2450   -1.4959   -0.0978 N   0  0  2  0  0  0  0  0  0  0  0  0
   -0.4207   -0.3039    0.4829 C   0  0  1  0  0  0  0  0  0  0  0  0
    0.2939    0.9458   -0.0881 C   0  0  0  0  0  0  0  0  0  0  0  0
   -0.5096   -2.7211    0.1793 C   0  0  0  0  0  0  0  0  0  0  0  0
   -1.9259   -0.2603    0.2266 C   0  0  0  0  0  0  0  0  0  0  0  0
    1.6219   -1.6157    0.4115 C   0  0  0  0  0  0  0  0  0  0  0  0
   -1.8478   -2.6645   -0.5530 C   0  0  0  0  0  0  0  0  0  0  0  0
   -2.6037   -1.4000   -0.2467 C   0  0  0  0  0  0  0  0  0  0  0  0
    1.7991    0.8688   -0.0096 C   0  0  0  0  0  0  0  0  0  0  0  0
    2.4367   -0.3644    0.1968 C   0  0  0  0  0  0  0  0  0  0  0  0
   -2.6766    0.8884    0.5284 C   0  0  0  0  0  0  0  0  0  0  0  0
   -3.9874   -1.3533   -0.4723 C   0  0  0  0  0  0  0  0  0  0  0  0
    3.8357   -0.4186    0.2579 C   0  0  0  0  0  0  0  0  0  0  0  0
    2.5703    2.0247   -0.1911 C   0  0  0  0  0  0  0  0  0  0  0  0
   -4.0557    0.9220    0.3138 C   0  0  0  0  0  0  0  0  0  0  0  0
   -4.7098   -0.1957   -0.1932 C   0  0  0  0  0  0  0  0  0  0  0  0
    4.5945    0.7389    0.0866 C   0  0  0  0  0  0  0  0  0  0  0  0
    3.9624    1.9590   -0.1410 C   0  0  0  0  0  0  0  0  0  0  0  0
   -4.8896    3.0200   -0.4336 C   0  0  0  0  0  0  0  0  0  0  0  0
    6.6442    0.4558   -1.0857 C   0  0  0  0  0  0  0  0  0  0  0  0
   -0.2974   -0.3249    1.5765 H   0  0  0  0  0  0  0  0  0  0  0  0
   -0.0268    1.8384    0.4624 H   0  0  0  0  0  0  0  0  0  0  0  0
    0.0170    1.0901   -1.1414 H   0  0  0  0  0  0  0  0  0  0  0  0
   -0.6647   -2.8528    1.2586 H   0  0  0  0  0  0  0  0  0  0  0  0
    0.0377   -3.6007   -0.1816 H   0  0  0  0  0  0  0  0  0  0  0  0
    2.1075   -2.4439   -0.1193 H   0  0  0  0  0  0  0  0  0  0  0  0
    1.6233   -1.8502    1.4844 H   0  0  0  0  0  0  0  0  0  0  0  0
   -2.4444   -3.5370   -0.2607 H   0  0  0  0  0  0  0  0  0  0  0  0
   -1.6856   -2.7185   -1.6371 H   0  0  0  0  0  0  0  0  0  0  0  0
   -2.1921    1.7687    0.9430 H   0  0  0  0  0  0  0  0  0  0  0  0
   -4.4968   -2.2323   -0.8611 H   0  0  0  0  0  0  0  0  0  0  0  0
    2.0888    2.9827   -0.3706 H   0  0  0  0  0  0  0  0  0  0  0  0
    4.5472    2.8645   -0.2783 H   0  0  0  0  0  0  0  0  0  0  0  0
    5.4290   -1.4387    0.5467 H   0  0  0  0  0  0  0  0  0  0  0  0
   -6.3318   -1.0371   -0.7641 H   0  0  0  0  0  0  0  0  0  0  0  0
   -5.4215    2.5902   -1.2883 H   0  0  0  0  0  0  0  0  0  0  0  0
   -3.9080    3.3883   -0.7484 H   0  0  0  0  0  0  0  0  0  0  0  0
   -5.4712    3.8613   -0.0470 H   0  0  0  0  0  0  0  0  0  0  0  0
    6.4680    1.2784   -1.7859 H   0  0  0  0  0  0  0  0  0  0  0  0
    6.3293   -0.4919   -1.5339 H   0  0  0  0  0  0  0  0  0  0  0  0
    7.7152    0.4023   -0.8718 H   0  0  0  0  0  0  0  0  0  0  0  0
  1 17  1  0  0  0  0
  1 38  1  0  0  0  0
  2 19  1  0  0  0  0
  2 23  1  0  0  0  0
  3 21  1  0  0  0  0
  3 24  1  0  0  0  0
  4 20  1  0  0  0  0
  4 39  1  0  0  0  0
  5  6  1  0  0  0  0
  5  8  1  0  0  0  0
  5 10  1  0  0  0  0
  6  7  1  0  0  0  0
  6  9  1  0  0  0  0
  6 25  1  0  0  0  0
  7 13  1  0  0  0  0
  7 26  1  0  0  0  0
  7 27  1  0  0  0  0
  8 11  1  0  0  0  0
  8 28  1  0  0  0  0
  8 29  1  0  0  0  0
  9 12  1  0  0  0  0
  9 15  2  0  0  0  0
 10 14  1  0  0  0  0
 10 30  1  0  0  0  0
 10 31  1  0  0  0  0
 11 12  1  0  0  0  0
 11 32  1  0  0  0  0
 11 33  1  0  0  0  0
 12 16  2  0  0  0  0
 13 14  2  0  0  0  0
 13 18  1  0  0  0  0
 14 17  1  0  0  0  0
 15 19  1  0  0  0  0
 15 34  1  0  0  0  0
 16 20  1  0  0  0  0
 16 35  1  0  0  0  0
 17 21  2  0  0  0  0
 18 22  2  0  0  0  0
 18 36  1  0  0  0  0
 19 20  2  0  0  0  0
 21 22  1  0  0  0  0
 22 37  1  0  0  0  0
 23 40  1  0  0  0  0
 23 41  1  0  0  0  0
 23 42  1  0  0  0  0
 24 43  1  0  0  0  0
 24 44  1  0  0  0  0
 24 45  1  0  0  0  0
M  END
> <PUBCHEM_COMPOUND_CID>
188442

> <PUBCHEM_CONFORMER_RMSD>
0.6

> <PUBCHEM_CONFORMER_DIVERSEORDER>
1
5
8
6
4
3
7
2

> <PUBCHEM_MMFF94_PARTIAL_CHARGES>
30
1 -0.53
10 0.41
11 0.14
12 -0.14
13 -0.14
14 -0.14
15 -0.15
16 -0.15
17 0.08
18 -0.15
19 0.08
2 -0.36
20 0.08
21 0.08
22 -0.15
23 0.28
24 0.28
3 -0.36
34 0.15
35 0.15
36 0.15
37 0.15
38 0.45
39 0.45
4 -0.53
5 -0.81
6 0.41
7 0.14
8 0.27
9 -0.14

> <PUBCHEM_EFFECTIVE_ROTOR_COUNT>
2.8

> <PUBCHEM_PHARMACOPHORE_FEATURES>
9
1 1 donor
1 2 acceptor
1 3 acceptor
1 4 donor
1 5 cation
6 13 14 17 18 21 22 rings
6 5 6 7 10 13 14 rings
6 5 6 8 9 11 12 rings
6 9 12 15 16 19 20 rings

> <PUBCHEM_HEAVY_ATOM_COUNT>
24

> <PUBCHEM_ATOM_DEF_STEREO_COUNT>
1

> <PUBCHEM_ATOM_UDEF_STEREO_COUNT>
0

> <PUBCHEM_BOND_DEF_STEREO_COUNT>
0

> <PUBCHEM_BOND_UDEF_STEREO_COUNT>
0

> <PUBCHEM_ISOTOPIC_ATOM_COUNT>
0

> <PUBCHEM_COMPONENT_COUNT>
1

> <PUBCHEM_CACTVS_TAUTO_COUNT>
80

> <PUBCHEM_CONFORMER_ID>
0002E01A00000001

> <PUBCHEM_MMFF94_ENERGY>
87.4523

> <PUBCHEM_FEATURE_SELFOVERLAP>
45.737

> <PUBCHEM_SHAPE_FINGERPRINT>
10411042 1 17041761990111713699
10595046 47 18338514252230365870
12107183 9 18049155571011270810
12236239 1 18407757027792448562
12390115 104 18200887184113658993
12403259 415 18202277026429267169
12788726 201 17774447079184448880
13583140 156 17313384552256986843
13785724 45 17761206614524993058
14790565 3 18408605850885246412
15042514 8 18122909995777070619
15183329 4 18411420613895652228
15196674 1 18410855438663926899
1601671 61 18408322173012267172
18608769 82 18267588086434931939
18681886 176 18130221670686114856
20511986 3 18340753889129348248
20715895 44 18123183499083379529
21267235 1 18339650047858279755
21279426 13 18269841930320247118
21304253 335 18333736792703703188
21421861 104 17822840976170679410
21709351 56 18411415128748201101
22393880 68 18272367598465091996
23402539 116 18273210932357479956
23402655 69 18410292527871567846
23559900 14 18129657651054131224
3004659 81 18336267860846512854
335352 9 18410012157044382990
34797466 226 17274826908459000200
350125 39 18411980269888823361
3545911 37 18413109484750769674
4073 2 18115310115623484410
4214541 1 18412544340158945233
474 4 17968377939237241155
5104073 3 18408038515648637691
543358 83 18408604764822802186
559249 180 18413388735499059806
59755656 215 18343027670859850702
59755656 520 17458059404241196003
6327066 14 18190736432953779701
6328613 192 18261400005045062748
633830 44 17822010925804788802
7226269 152 18060423508028401032
9709674 26 18270969045450139918
9981440 41 18408604764759947515

> <PUBCHEM_SHAPE_MULTIPOLES>
465.45
13.69
2.78
0.76
5.86
0.03
-0.05
6.05
-2.06
-2.25
-0.19
0.14
0
-0.65

> <PUBCHEM_SHAPE_SELFOVERLAP>
1021.572

> <PUBCHEM_SHAPE_VOLUME>
251.7

> <PUBCHEM_COORDINATE_TYPE>
2
5
10

$$$$
