149600
  -OEChem-09062014113D

 44 48  0     1  0  0  0  0  0999 V2000
   -1.3461    3.0857    0.0226 O   0  0  0  0  0  0  0  0  0  0  0  0
   -3.7253    2.8598    0.1449 O   0  0  0  0  0  0  0  0  0  0  0  0
    3.4556   -1.6478   -0.1294 O   0  0  0  0  0  0  0  0  0  0  0  0
    4.8176    0.7143   -0.1667 O   0  0  0  0  0  0  0  0  0  0  0  0
   -1.3710   -3.0679   -0.0699 N   0  0  1  0  0  0  0  0  0  0  0  0
   -1.4914   -0.6221   -0.0035 C   0  0  0  0  0  0  0  0  0  0  0  0
   -2.9145   -0.7010    0.0720 C   0  0  0  0  0  0  0  0  0  0  0  0
   -0.7324   -1.8190   -0.0509 C   0  0  0  0  0  0  0  0  0  0  0  0
   -0.8443    0.6556   -0.0150 C   0  0  0  0  0  0  0  0  0  0  0  0
   -3.5821   -2.0507    0.1589 C   0  0  0  0  0  0  0  0  0  0  0  0
   -2.7458   -3.0959   -0.5590 C   0  0  0  0  0  0  0  0  0  0  0  0
    0.6010    0.7223   -0.0593 C   0  0  0  0  0  0  0  0  0  0  0  0
   -1.7135    1.7680    0.0301 C   0  0  0  0  0  0  0  0  0  0  0  0
    1.3349   -0.4859   -0.0781 C   0  0  0  0  0  0  0  0  0  0  0  0
    0.6669   -1.7143   -0.0685 C   0  0  0  0  0  0  0  0  0  0  0  0
   -3.7156    0.4420    0.1332 C   0  0  0  0  0  0  0  0  0  0  0  0
   -3.0871    1.6585    0.1007 C   0  0  0  0  0  0  0  0  0  0  0  0
   -0.6225   -4.3159   -0.0681 C   0  0  0  0  0  0  0  0  0  0  0  0
    2.7417   -0.4789   -0.1114 C   0  0  0  0  0  0  0  0  0  0  0  0
    1.3727    1.9161   -0.0799 C   0  0  0  0  0  0  0  0  0  0  0  0
   -2.6116    3.7620    0.0907 C   0  0  0  0  0  0  0  0  0  0  0  0
    3.4573    0.7121   -0.1292 C   0  0  0  0  0  0  0  0  0  0  0  0
    2.7710    1.9127   -0.1144 C   0  0  0  0  0  0  0  0  0  0  0  0
    3.8196   -2.1955    1.1324 C   0  0  0  0  0  0  0  0  0  0  0  0
    5.4649    1.9858   -0.1823 C   0  0  0  0  0  0  0  0  0  0  0  0
   -3.6967   -2.3135    1.2178 H   0  0  0  0  0  0  0  0  0  0  0  0
   -4.5806   -2.0190   -0.2924 H   0  0  0  0  0  0  0  0  0  0  0  0
   -3.1991   -4.0810   -0.3970 H   0  0  0  0  0  0  0  0  0  0  0  0
   -2.7488   -2.9176   -1.6426 H   0  0  0  0  0  0  0  0  0  0  0  0
    1.2531   -2.6301   -0.1071 H   0  0  0  0  0  0  0  0  0  0  0  0
   -4.7957    0.3727    0.2057 H   0  0  0  0  0  0  0  0  0  0  0  0
    0.0744   -4.3590    0.7760 H   0  0  0  0  0  0  0  0  0  0  0  0
   -0.0705   -4.4420   -1.0056 H   0  0  0  0  0  0  0  0  0  0  0  0
   -1.2922   -5.1763    0.0401 H   0  0  0  0  0  0  0  0  0  0  0  0
    0.9052    2.8946   -0.0702 H   0  0  0  0  0  0  0  0  0  0  0  0
   -2.7170    4.4020   -0.7928 H   0  0  0  0  0  0  0  0  0  0  0  0
   -2.6249    4.3947    0.9855 H   0  0  0  0  0  0  0  0  0  0  0  0
    3.2469    2.8872   -0.1279 H   0  0  0  0  0  0  0  0  0  0  0  0
    4.5504   -1.5510    1.6311 H   0  0  0  0  0  0  0  0  0  0  0  0
    4.2793   -3.1729    0.9616 H   0  0  0  0  0  0  0  0  0  0  0  0
    2.9449   -2.3309    1.7763 H   0  0  0  0  0  0  0  0  0  0  0  0
    5.2634    2.5522    0.7333 H   0  0  0  0  0  0  0  0  0  0  0  0
    5.2179    2.5529   -1.0862 H   0  0  0  0  0  0  0  0  0  0  0  0
    6.5434    1.7979   -0.2094 H   0  0  0  0  0  0  0  0  0  0  0  0
  1 13  1  0  0  0  0
  1 21  1  0  0  0  0
  2 17  1  0  0  0  0
  2 21  1  0  0  0  0
  3 19  1  0  0  0  0
  3 24  1  0  0  0  0
  4 22  1  0  0  0  0
  4 25  1  0  0  0  0
  5  8  1  0  0  0  0
  5 11  1  0  0  0  0
  5 18  1  0  0  0  0
  6  7  1  0  0  0  0
  6  8  2  0  0  0  0
  6  9  1  0  0  0  0
  7 10  1  0  0  0  0
  7 16  2  0  0  0  0
  8 15  1  0  0  0  0
  9 12  2  0  0  0  0
  9 13  1  0  0  0  0
 10 11  1  0  0  0  0
 10 26  1  0  0  0  0
 10 27  1  0  0  0  0
 11 28  1  0  0  0  0
 11 29  1  0  0  0  0
 12 14  1  0  0  0  0
 12 20  1  0  0  0  0
 13 17  2  0  0  0  0
 14 15  2  0  0  0  0
 14 19  1  0  0  0  0
 15 30  1  0  0  0  0
 16 17  1  0  0  0  0
 16 31  1  0  0  0  0
 18 32  1  0  0  0  0
 18 33  1  0  0  0  0
 18 34  1  0  0  0  0
 19 22  2  0  0  0  0
 20 23  2  0  0  0  0
 20 35  1  0  0  0  0
 21 36  1  0  0  0  0
 21 37  1  0  0  0  0
 22 23  1  0  0  0  0
 23 38  1  0  0  0  0
 24 39  1  0  0  0  0
 24 40  1  0  0  0  0
 24 41  1  0  0  0  0
 25 42  1  0  0  0  0
 25 43  1  0  0  0  0
 25 44  1  0  0  0  0
M  END
> <PUBCHEM_COMPOUND_CID>
149600

> <PUBCHEM_CONFORMER_RMSD>
0.6

> <PUBCHEM_CONFORMER_DIVERSEORDER>
1
2

> <PUBCHEM_MMFF94_PARTIAL_CHARGES>
25
1 -0.36
10 0.14
11 0.37
13 0.08
15 -0.15
16 -0.15
17 0.08
18 0.37
19 0.08
2 -0.36
20 -0.15
21 0.56
22 0.08
23 -0.15
24 0.28
25 0.28
3 -0.36
30 0.15
31 0.15
35 0.15
38 0.15
4 -0.36
5 -0.84
7 -0.14
8 0.1

> <PUBCHEM_EFFECTIVE_ROTOR_COUNT>
3.2

> <PUBCHEM_PHARMACOPHORE_FEATURES>
10
1 1 acceptor
1 2 acceptor
1 3 acceptor
1 4 acceptor
1 5 cation
5 1 2 13 17 21 rings
6 12 14 19 20 22 23 rings
6 5 6 7 8 10 11 rings
6 6 7 9 13 16 17 rings
6 6 8 9 12 14 15 rings

> <PUBCHEM_HEAVY_ATOM_COUNT>
25

> <PUBCHEM_ATOM_DEF_STEREO_COUNT>
0

> <PUBCHEM_ATOM_UDEF_STEREO_COUNT>
0

> <PUBCHEM_BOND_DEF_STEREO_COUNT>
0

> <PUBCHEM_BOND_UDEF_STEREO_COUNT>
0

> <PUBCHEM_ISOTOPIC_ATOM_COUNT>
0

> <PUBCHEM_COMPONENT_COUNT>
1

> <PUBCHEM_CACTVS_TAUTO_COUNT>
1

> <PUBCHEM_CONFORMER_ID>
0002486000000001

> <PUBCHEM_MMFF94_ENERGY>
112.2247

> <PUBCHEM_FEATURE_SELFOVERLAP>
51.004

> <PUBCHEM_SHAPE_FINGERPRINT>
10319926 262 18270662269849458000
10411042 1 17690563408793392166
10616163 171 18339364179325048326
10967382 1 17834677475977008207
1100329 8 18194398884288383018
11135609 187 18337378333104812717
11370993 70 18194679268095616853
12107183 9 18047462336712266106
12173636 292 18410855430242888661
12390115 104 18199768988777330257
12403259 226 18056194910856718544
12403260 363 18266728100368333111
12553582 1 18050842514106943555
12788726 201 18262793102744966410
13140716 1 18265333906660277168
138480 1 16897929363385105855
14081887 123 18269541905269015272
14178342 30 18265596836543288304
14508225 48 17910663595165215711
14790565 3 18195535796207009976
15042514 8 18193846057393614635
15196674 1 18410294666375215944
15403338 16 16015215091724936059
15442244 35 18408881807124400330
16087824 20 18339361976993496439
16110190 28 17902491715864101554
16728300 4 16379434898241994866
16945 1 18338795744397540639
17492 89 18409167710002052842
19591789 44 18194404394256527023
20028762 73 18200583697451110407
20510252 161 18343025492852553993
20775438 99 16329583574221698695
20905425 154 18270123546751251502
21267235 1 18194129748346817518
22393880 68 18412834577591477204
2334 1 18338800147234995143
23402539 116 18199465648469846727
23557571 272 18128829705876337228
23558518 356 18333456438623889490
23559900 14 18125151890768326528
238 59 17105056557895491069
25147074 1 18113614591526285010
2748010 2 17690569576603253903
283562 15 18412825802883652931
3091708 16 9054479908635379169
335352 9 18122063100612268828
34934 24 18338231690896376846
350125 39 18411141333605369681
352729 6 18339925905223255207
5104073 3 18337112263405003944
7097593 13 17971459707506937978
7364860 26 17474953125792773671
9709674 26 18342183305816791030
9981440 41 18337106753188459009

> <PUBCHEM_SHAPE_MULTIPOLES>
486.03
8.21
4.82
0.67
8.42
0.93
-0.05
-2.38
-0.18
-3.66
-0.05
0.16
0.17
-0.83

> <PUBCHEM_SHAPE_SELFOVERLAP>
1102.456

> <PUBCHEM_SHAPE_VOLUME>
254.6

> <PUBCHEM_COORDINATE_TYPE>
2
5
10

$$$$
