28565
  -OEChem-09062014163D

 49 52  0     1  0  0  0  0  0999 V2000
   -4.5668    1.4826    0.4524 O   0  0  0  0  0  0  0  0  0  0  0  0
    5.8778   -0.2858   -0.6280 O   0  0  0  0  0  0  0  0  0  0  0  0
   -5.9685   -0.8095   -0.1436 O   0  0  0  0  0  0  0  0  0  0  0  0
    4.8741   -1.7181    1.5302 O   0  0  0  0  0  0  0  0  0  0  0  0
   -0.2298    1.5479    0.4137 N   0  3  1  0  0  0  0  0  0  0  0  0
    0.4136    0.2060    0.8372 C   0  0  1  0  0  0  0  0  0  0  0  0
    0.0352    1.7936   -1.0764 C   0  0  0  0  0  0  0  0  0  0  0  0
   -1.7473    1.5288    0.7071 C   0  0  0  0  0  0  0  0  0  0  0  0
   -0.3159   -0.9961    0.1899 C   0  0  0  0  0  0  0  0  0  0  0  0
    1.8815    0.1132    0.4675 C   0  0  0  0  0  0  0  0  0  0  0  0
    1.5339    1.8237   -1.3861 C   0  0  0  0  0  0  0  0  0  0  0  0
    0.3432    2.7108    1.2510 C   0  0  0  0  0  0  0  0  0  0  0  0
   -2.4895    0.2824    0.3318 C   0  0  0  0  0  0  0  0  0  0  0  0
    2.3859    0.8352   -0.6292 C   0  0  0  0  0  0  0  0  0  0  0  0
   -1.8152   -0.9275    0.1481 C   0  0  0  0  0  0  0  0  0  0  0  0
    2.7301   -0.7444    1.1836 C   0  0  0  0  0  0  0  0  0  0  0  0
   -3.8893    0.3155    0.2421 C   0  0  0  0  0  0  0  0  0  0  0  0
    3.7361    0.6914   -0.9815 C   0  0  0  0  0  0  0  0  0  0  0  0
   -2.5483   -2.0853   -0.1563 C   0  0  0  0  0  0  0  0  0  0  0  0
    4.0686   -0.8805    0.8196 C   0  0  0  0  0  0  0  0  0  0  0  0
    4.5709   -0.1644   -0.2634 C   0  0  0  0  0  0  0  0  0  0  0  0
   -4.6099   -0.8409   -0.0527 C   0  0  0  0  0  0  0  0  0  0  0  0
   -3.9385   -2.0425   -0.2533 C   0  0  0  0  0  0  0  0  0  0  0  0
    6.1943   -1.3023   -1.5770 C   0  0  0  0  0  0  0  0  0  0  0  0
   -6.5262   -0.5339   -1.4271 C   0  0  0  0  0  0  0  0  0  0  0  0
    0.2963    0.1645    1.9285 H   0  0  0  0  0  0  0  0  0  0  0  0
   -0.4379    2.7431   -1.3529 H   0  0  0  0  0  0  0  0  0  0  0  0
   -0.4588    0.9953   -1.6397 H   0  0  0  0  0  0  0  0  0  0  0  0
   -2.1636    2.4070    0.1995 H   0  0  0  0  0  0  0  0  0  0  0  0
   -1.8595    1.6644    1.7904 H   0  0  0  0  0  0  0  0  0  0  0  0
   -0.0244   -1.9043    0.7356 H   0  0  0  0  0  0  0  0  0  0  0  0
    0.0292   -1.1405   -0.8436 H   0  0  0  0  0  0  0  0  0  0  0  0
    1.9188    2.8295   -1.1740 H   0  0  0  0  0  0  0  0  0  0  0  0
    1.6629    1.6612   -2.4636 H   0  0  0  0  0  0  0  0  0  0  0  0
   -0.1398    3.6355    0.9213 H   0  0  0  0  0  0  0  0  0  0  0  0
    0.1237    2.5172    2.3054 H   0  0  0  0  0  0  0  0  0  0  0  0
    1.4236    2.7766    1.1118 H   0  0  0  0  0  0  0  0  0  0  0  0
    2.3416   -1.3137    2.0251 H   0  0  0  0  0  0  0  0  0  0  0  0
    4.1399    1.2588   -1.8174 H   0  0  0  0  0  0  0  0  0  0  0  0
   -2.0347   -3.0291   -0.3237 H   0  0  0  0  0  0  0  0  0  0  0  0
   -4.4890   -2.9498   -0.4863 H   0  0  0  0  0  0  0  0  0  0  0  0
   -5.5213    1.3044    0.3983 H   0  0  0  0  0  0  0  0  0  0  0  0
    5.7754   -1.6609    1.1691 H   0  0  0  0  0  0  0  0  0  0  0  0
    5.8992   -2.2882   -1.2043 H   0  0  0  0  0  0  0  0  0  0  0  0
    7.2762   -1.2980   -1.7354 H   0  0  0  0  0  0  0  0  0  0  0  0
    5.6999   -1.0992   -2.5322 H   0  0  0  0  0  0  0  0  0  0  0  0
   -6.2639   -1.3266   -2.1347 H   0  0  0  0  0  0  0  0  0  0  0  0
   -6.1792    0.4339   -1.8029 H   0  0  0  0  0  0  0  0  0  0  0  0
   -7.6146   -0.5004   -1.3274 H   0  0  0  0  0  0  0  0  0  0  0  0
  1 17  1  0  0  0  0
  1 42  1  0  0  0  0
  2 21  1  0  0  0  0
  2 24  1  0  0  0  0
  3 22  1  0  0  0  0
  3 25  1  0  0  0  0
  4 20  1  0  0  0  0
  4 43  1  0  0  0  0
  5  6  1  0  0  0  0
  5  7  1  0  0  0  0
  5  8  1  0  0  0  0
  5 12  1  0  0  0  0
  6  9  1  0  0  0  0
  6 10  1  0  0  0  0
  6 26  1  0  0  0  0
  7 11  1  0  0  0  0
  7 27  1  0  0  0  0
  7 28  1  0  0  0  0
  8 13  1  0  0  0  0
  8 29  1  0  0  0  0
  8 30  1  0  0  0  0
  9 15  1  0  0  0  0
  9 31  1  0  0  0  0
  9 32  1  0  0  0  0
 10 14  1  0  0  0  0
 10 16  2  0  0  0  0
 11 14  1  0  0  0  0
 11 33  1  0  0  0  0
 11 34  1  0  0  0  0
 12 35  1  0  0  0  0
 12 36  1  0  0  0  0
 12 37  1  0  0  0  0
 13 15  2  0  0  0  0
 13 17  1  0  0  0  0
 14 18  2  0  0  0  0
 15 19  1  0  0  0  0
 16 20  1  0  0  0  0
 16 38  1  0  0  0  0
 17 22  2  0  0  0  0
 18 21  1  0  0  0  0
 18 39  1  0  0  0  0
 19 23  2  0  0  0  0
 19 40  1  0  0  0  0
 20 21  2  0  0  0  0
 22 23  1  0  0  0  0
 23 41  1  0  0  0  0
 24 44  1  0  0  0  0
 24 45  1  0  0  0  0
 24 46  1  0  0  0  0
 25 47  1  0  0  0  0
 25 48  1  0  0  0  0
 25 49  1  0  0  0  0
M  CHG  1   5   1
M  END
> <PUBCHEM_COMPOUND_CID>
28565

> <PUBCHEM_CONFORMER_RMSD>
0.6

> <PUBCHEM_CONFORMER_DIVERSEORDER>
10
24
4
2
19
22
14
16
9
23
3
15
7
18
11
13
8
5
1
20
6
12
17
21

> <PUBCHEM_MMFF94_PARTIAL_CHARGES>
31
1 -0.53
10 -0.14
11 0.14
12 0.5
13 -0.14
14 -0.14
15 -0.14
16 -0.15
17 0.08
18 -0.15
19 -0.15
2 -0.36
20 0.08
21 0.08
22 0.08
23 -0.15
24 0.28
25 0.28
3 -0.36
38 0.15
39 0.15
4 -0.53
40 0.15
41 0.15
42 0.45
43 0.45
5 -1.01
6 0.65
7 0.5
8 0.65
9 0.14

> <PUBCHEM_EFFECTIVE_ROTOR_COUNT>
2.8

> <PUBCHEM_PHARMACOPHORE_FEATURES>
9
1 1 donor
1 2 acceptor
1 3 acceptor
1 4 donor
1 5 cation
6 10 14 16 18 20 21 rings
6 13 15 17 19 22 23 rings
6 5 6 7 10 11 14 rings
6 5 6 8 9 13 15 rings

> <PUBCHEM_HEAVY_ATOM_COUNT>
25

> <PUBCHEM_ATOM_DEF_STEREO_COUNT>
0

> <PUBCHEM_ATOM_UDEF_STEREO_COUNT>
2

> <PUBCHEM_BOND_DEF_STEREO_COUNT>
0

> <PUBCHEM_BOND_UDEF_STEREO_COUNT>
0

> <PUBCHEM_ISOTOPIC_ATOM_COUNT>
0

> <PUBCHEM_COMPONENT_COUNT>
1

> <PUBCHEM_CACTVS_TAUTO_COUNT>
26

> <PUBCHEM_CONFORMER_ID>
00006F950000000A

> <PUBCHEM_MMFF94_ENERGY>
102.1686

> <PUBCHEM_FEATURE_SELFOVERLAP>
45.767

> <PUBCHEM_SHAPE_FINGERPRINT>
10062212 137 18410856590184822995
10369192 42 17627487652977572168
11578080 2 18190156010356148596
11796584 16 18411140276700828854
12011746 2 18411695491892488047
12166972 35 18411420639581527665
12236239 1 18333735702177499032
12516196 113 17989486337987813472
12596602 18 13614236005810442119
12788726 201 18337395933294391520
13288520 33 18272938219124479005
13583140 156 16343420584073921268
13782708 43 16845290553258755615
13862211 1 18342450448561624147
13911987 19 16154292562942047214
14294032 229 18198065769127982801
14347332 77 18191587446310579902
14576447 43 18187085061995001714
15183329 4 18114177523846137285
15475509 35 17060058082957548806
17349148 13 18202285822938663029
17492 89 17840582922992370031
17804303 29 18342737442465613937
1813 80 18114186302516742710
18222031 100 18131067155871769114
18681886 176 18341615936784932072
200 152 18186804668991386112
20511986 3 18334846243017819812
20612939 158 17822015357952848412
21033648 29 16128368242789500227
21250096 35 18411980277798191584
21267235 1 18410864286940381787
21641784 216 16515976856900722022
22079108 93 12391511996623263444
221357 26 17385996278543470413
23402539 116 18273217473613926589
23557571 272 17775014444369342568
23559900 14 18199181961437369977
25147074 1 17677616346539309096
29717793 49 18412830196234185966
3004659 81 18407761443445947270
335352 9 18413105074853182287
3411729 13 17701245065742027520
34797466 226 17846219994716910376
350125 39 18408321078254685417
392239 28 11887666338562057079
4098825 35 14924210578876424934
4325135 7 18342176709380150212
5104073 3 18271811289079562073
559249 180 18411420579546547775
59682541 35 8934995997947491695
59755656 215 18271529714892101766
633830 44 14996561862793630957
9981440 41 17107912461760172017

> <PUBCHEM_SHAPE_MULTIPOLES>
486.03
13.51
2.21
1.3
1.69
0.62
0.15
-7.11
4.22
0.36
-0.18
-1.06
0.1
-0.79

> <PUBCHEM_SHAPE_SELFOVERLAP>
1058.675

> <PUBCHEM_SHAPE_VOLUME>
264.6

> <PUBCHEM_COORDINATE_TYPE>
2
5
10

$$$$
