185605
  -OEChem-09062014203D

 48 51  0     1  0  0  0  0  0999 V2000
    4.3198   -1.3916    0.4553 O   0  0  0  0  0  0  0  0  0  0  0  0
   -4.9673    2.0976    0.2605 O   0  0  0  0  0  0  0  0  0  0  0  0
    5.7659    0.9067   -0.0072 O   0  0  0  0  0  0  0  0  0  0  0  0
   -6.2174   -0.2103   -0.6482 O   0  0  0  0  0  0  0  0  0  0  0  0
    0.0993   -1.3954   -0.1873 N   0  0  2  0  0  0  0  0  0  0  0  0
   -0.5949   -0.1855    0.3182 C   0  0  1  0  0  0  0  0  0  0  0  0
    0.1045    1.0436   -0.3132 C   0  0  0  0  0  0  0  0  0  0  0  0
   -0.6368   -2.6170    0.1491 C   0  0  0  0  0  0  0  0  0  0  0  0
   -2.0973   -0.1841    0.0424 C   0  0  0  0  0  0  0  0  0  0  0  0
    1.4715   -1.4610    0.3441 C   0  0  0  0  0  0  0  0  0  0  0  0
   -1.9665   -2.6261   -0.6007 C   0  0  0  0  0  0  0  0  0  0  0  0
    1.6097    0.9989   -0.2136 C   0  0  0  0  0  0  0  0  0  0  0  0
   -2.7485   -1.3606   -0.3745 C   0  0  0  0  0  0  0  0  0  0  0  0
    2.2666   -0.2089    0.0687 C   0  0  0  0  0  0  0  0  0  0  0  0
   -2.8721    0.9654    0.2708 C   0  0  0  0  0  0  0  0  0  0  0  0
    3.6655   -0.2337    0.1484 C   0  0  0  0  0  0  0  0  0  0  0  0
   -4.1298   -1.3521   -0.6189 C   0  0  0  0  0  0  0  0  0  0  0  0
    2.3623    2.1569   -0.4512 C   0  0  0  0  0  0  0  0  0  0  0  0
   -4.2486    0.9616    0.0383 C   0  0  0  0  0  0  0  0  0  0  0  0
   -4.8760   -0.1943   -0.4135 C   0  0  0  0  0  0  0  0  0  0  0  0
    4.4055    0.9262   -0.0791 C   0  0  0  0  0  0  0  0  0  0  0  0
    3.7546    2.1197   -0.3817 C   0  0  0  0  0  0  0  0  0  0  0  0
    4.5641   -1.6484    1.8356 C   0  0  0  0  0  0  0  0  0  0  0  0
   -5.5086    2.2765    1.5677 C   0  0  0  0  0  0  0  0  0  0  0  0
    6.4743    0.6157   -1.2102 C   0  0  0  0  0  0  0  0  0  0  0  0
   -0.4852   -0.1432    1.4126 H   0  0  0  0  0  0  0  0  0  0  0  0
   -0.2387    1.9592    0.1833 H   0  0  0  0  0  0  0  0  0  0  0  0
   -0.1620    1.1243   -1.3760 H   0  0  0  0  0  0  0  0  0  0  0  0
   -0.8032   -2.6912    1.2323 H   0  0  0  0  0  0  0  0  0  0  0  0
   -0.0694   -3.5050   -0.1556 H   0  0  0  0  0  0  0  0  0  0  0  0
    1.9785   -2.3099   -0.1309 H   0  0  0  0  0  0  0  0  0  0  0  0
    1.4550   -1.6332    1.4279 H   0  0  0  0  0  0  0  0  0  0  0  0
   -2.5512   -3.4917   -0.2669 H   0  0  0  0  0  0  0  0  0  0  0  0
   -1.7897   -2.7375   -1.6781 H   0  0  0  0  0  0  0  0  0  0  0  0
   -2.4083    1.8767    0.6397 H   0  0  0  0  0  0  0  0  0  0  0  0
   -4.6184   -2.2607   -0.9640 H   0  0  0  0  0  0  0  0  0  0  0  0
    1.8662    3.0943   -0.6896 H   0  0  0  0  0  0  0  0  0  0  0  0
    4.3249    3.0267   -0.5629 H   0  0  0  0  0  0  0  0  0  0  0  0
   -6.4758   -1.0970   -0.9530 H   0  0  0  0  0  0  0  0  0  0  0  0
    5.0022   -2.6462    1.9252 H   0  0  0  0  0  0  0  0  0  0  0  0
    3.6367   -1.6220    2.4154 H   0  0  0  0  0  0  0  0  0  0  0  0
    5.2745   -0.9193    2.2378 H   0  0  0  0  0  0  0  0  0  0  0  0
   -4.7068    2.3259    2.3112 H   0  0  0  0  0  0  0  0  0  0  0  0
   -6.1996    1.4641    1.8137 H   0  0  0  0  0  0  0  0  0  0  0  0
   -6.0594    3.2210    1.5842 H   0  0  0  0  0  0  0  0  0  0  0  0
    6.2655    1.3745   -1.9710 H   0  0  0  0  0  0  0  0  0  0  0  0
    6.2059   -0.3768   -1.5855 H   0  0  0  0  0  0  0  0  0  0  0  0
    7.5450    0.6279   -0.9888 H   0  0  0  0  0  0  0  0  0  0  0  0
  1 16  1  0  0  0  0
  1 23  1  0  0  0  0
  2 19  1  0  0  0  0
  2 24  1  0  0  0  0
  3 21  1  0  0  0  0
  3 25  1  0  0  0  0
  4 20  1  0  0  0  0
  4 39  1  0  0  0  0
  5  6  1  0  0  0  0
  5  8  1  0  0  0  0
  5 10  1  0  0  0  0
  6  7  1  0  0  0  0
  6  9  1  0  0  0  0
  6 26  1  0  0  0  0
  7 12  1  0  0  0  0
  7 27  1  0  0  0  0
  7 28  1  0  0  0  0
  8 11  1  0  0  0  0
  8 29  1  0  0  0  0
  8 30  1  0  0  0  0
  9 13  1  0  0  0  0
  9 15  2  0  0  0  0
 10 14  1  0  0  0  0
 10 31  1  0  0  0  0
 10 32  1  0  0  0  0
 11 13  1  0  0  0  0
 11 33  1  0  0  0  0
 11 34  1  0  0  0  0
 12 14  2  0  0  0  0
 12 18  1  0  0  0  0
 13 17  2  0  0  0  0
 14 16  1  0  0  0  0
 15 19  1  0  0  0  0
 15 35  1  0  0  0  0
 16 21  2  0  0  0  0
 17 20  1  0  0  0  0
 17 36  1  0  0  0  0
 18 22  2  0  0  0  0
 18 37  1  0  0  0  0
 19 20  2  0  0  0  0
 21 22  1  0  0  0  0
 22 38  1  0  0  0  0
 23 40  1  0  0  0  0
 23 41  1  0  0  0  0
 23 42  1  0  0  0  0
 24 43  1  0  0  0  0
 24 44  1  0  0  0  0
 24 45  1  0  0  0  0
 25 46  1  0  0  0  0
 25 47  1  0  0  0  0
 25 48  1  0  0  0  0
M  END
> <PUBCHEM_COMPOUND_CID>
185605

> <PUBCHEM_CONFORMER_RMSD>
0.8

> <PUBCHEM_CONFORMER_DIVERSEORDER>
2
4
5
3
7
6
8
1

> <PUBCHEM_MMFF94_PARTIAL_CHARGES>
30
1 -0.36
10 0.41
11 0.14
12 -0.14
13 -0.14
14 -0.14
15 -0.15
16 0.08
17 -0.15
18 -0.15
19 0.08
2 -0.36
20 0.08
21 0.08
22 -0.15
23 0.28
24 0.28
25 0.28
3 -0.36
35 0.15
36 0.15
37 0.15
38 0.15
39 0.45
4 -0.53
5 -0.81
6 0.41
7 0.14
8 0.27
9 -0.14

> <PUBCHEM_EFFECTIVE_ROTOR_COUNT>
3.8

> <PUBCHEM_PHARMACOPHORE_FEATURES>
9
1 1 acceptor
1 2 acceptor
1 3 acceptor
1 4 donor
1 5 cation
6 12 14 16 18 21 22 rings
6 5 6 7 10 12 14 rings
6 5 6 8 9 11 13 rings
6 9 13 15 17 19 20 rings

> <PUBCHEM_HEAVY_ATOM_COUNT>
25

> <PUBCHEM_ATOM_DEF_STEREO_COUNT>
0

> <PUBCHEM_ATOM_UDEF_STEREO_COUNT>
1

> <PUBCHEM_BOND_DEF_STEREO_COUNT>
0

> <PUBCHEM_BOND_UDEF_STEREO_COUNT>
0

> <PUBCHEM_ISOTOPIC_ATOM_COUNT>
0

> <PUBCHEM_COMPONENT_COUNT>
1

> <PUBCHEM_CACTVS_TAUTO_COUNT>
9

> <PUBCHEM_CONFORMER_ID>
0002D50500000002

> <PUBCHEM_MMFF94_ENERGY>
101.5708

> <PUBCHEM_FEATURE_SELFOVERLAP>
45.743

> <PUBCHEM_SHAPE_FINGERPRINT>
10595046 47 18339077215105625437
10763959 59 17530677702022736949
10906281 52 18335152985677483954
12107183 9 18193834838659216202
12236239 1 18412544297166872992
12390115 104 18130519552437883273
12422481 6 18116988893078511533
12633257 1 18336822009351219437
12788726 201 18202007581888230232
13140716 1 18408039623739721354
13583140 156 17749395905041084211
13785724 45 17833547899753260266
14739800 52 17985530381283030760
14790565 3 18409732845950727261
15183329 4 18410291410710696132
15196674 1 18410009940023749287
15238133 3 18060133194003532136
15475509 8 18269572558893536652
1577012 14 18412262809738017377
1601671 61 18410573981384173604
17349148 13 18202560691749257246
17818456 19 18341895160423774512
18681886 176 18130786824036983968
20511986 3 18338780304369997696
21033648 29 16917338243281018344
21267235 1 18338242681564635175
21421861 104 17822278052018495906
23402539 116 18273213118559377581
23522609 53 18189641400438868716
23559900 14 18129940216926148160
25147074 1 18336813273393650583
3004659 81 18408603639662819734
335352 9 18408886261406036588
34797466 226 16988563558429999200
34934 24 18335416915912971250
350125 39 18411698803528375441
3545911 37 18410575123333621989
3680242 22 18263077730412275562
4073 2 17968662747572804056
4214541 1 18411699923908412261
474 4 18040717012657740213
5104073 3 18335699459534731651
543358 83 18334856134796734578
59755656 215 18343027679407554942
6328613 192 18263088863395112484
7064713 232 18271237236187449425
7226269 152 17846786178464441817

> <PUBCHEM_SHAPE_MULTIPOLES>
486.03
14.22
2.66
1.01
0.93
0.35
-0.32
-5.32
0.12
-1
-0.28
0.3
0.03
-2.46

> <PUBCHEM_SHAPE_SELFOVERLAP>
1060.07

> <PUBCHEM_SHAPE_VOLUME>
265

> <PUBCHEM_COORDINATE_TYPE>
2
5
10

$$$$
