128108
  -OEChem-09062014473D

 80 86  0     1  0  0  0  0  0999 V2000
   -1.3189    0.2069    0.9368 O   0  0  0  0  0  0  0  0  0  0  0  0
   -3.7896    0.8289    1.9880 O   0  0  0  0  0  0  0  0  0  0  0  0
   -5.9460   -0.8352    1.5327 O   0  0  0  0  0  0  0  0  0  0  0  0
    4.6658   -1.1700    0.6448 O   0  0  0  0  0  0  0  0  0  0  0  0
    5.5299   -3.5782   -0.2249 O   0  0  0  0  0  0  0  0  0  0  0  0
   -3.1247    0.9177   -1.3278 O   0  0  0  0  0  0  0  0  0  0  0  0
    2.6489    4.7856    1.6261 O   0  0  0  0  0  0  0  0  0  0  0  0
   -0.8076   -3.2388   -1.5661 N   0  0  1  0  0  0  0  0  0  0  0  0
    1.4109    5.3835   -0.8073 N   0  0  0  0  0  0  0  0  0  0  0  0
   -0.7937   -2.2855   -0.4317 C   0  0  1  0  0  0  0  0  0  0  0  0
   -2.1830   -1.8497    0.0230 C   0  0  0  0  0  0  0  0  0  0  0  0
   -1.7439   -4.3458   -1.3412 C   0  0  0  0  0  0  0  0  0  0  0  0
   -3.1846   -3.9015   -1.0843 C   0  0  0  0  0  0  0  0  0  0  0  0
   -3.2971   -2.6769   -0.2134 C   0  0  0  0  0  0  0  0  0  0  0  0
   -0.0168   -2.8753    0.7797 C   0  0  0  0  0  0  0  0  0  0  0  0
   -2.3798   -0.6430    0.7215 C   0  0  0  0  0  0  0  0  0  0  0  0
   -1.0415   -2.5693   -2.8458 C   0  0  0  0  0  0  0  0  0  0  0  0
   -4.5562   -2.3158    0.2921 C   0  0  0  0  0  0  0  0  0  0  0  0
    1.4580   -3.0704    0.5139 C   0  0  0  0  0  0  0  0  0  0  0  0
   -3.6289   -0.3103    1.2560 C   0  0  0  0  0  0  0  0  0  0  0  0
   -4.7163   -1.1490    1.0378 C   0  0  0  0  0  0  0  0  0  0  0  0
    2.3483   -2.0063    0.7156 C   0  0  0  0  0  0  0  0  0  0  0  0
    1.9561   -4.2971    0.0607 C   0  0  0  0  0  0  0  0  0  0  0  0
    3.7180   -2.1610    0.4585 C   0  0  0  0  0  0  0  0  0  0  0  0
   -1.2160    1.3332    0.1407 C   0  0  0  0  0  0  0  0  0  0  0  0
    3.3212   -4.4574   -0.1828 C   0  0  0  0  0  0  0  0  0  0  0  0
    4.2018   -3.3943    0.0189 C   0  0  0  0  0  0  0  0  0  0  0  0
   -0.1281    2.1666    0.4296 C   0  0  0  0  0  0  0  0  0  0  0  0
   -2.0760    1.6753   -0.9012 C   0  0  0  0  0  0  0  0  0  0  0  0
   -3.5831    0.7281    3.3951 C   0  0  0  0  0  0  0  0  0  0  0  0
    0.1296    3.3460   -0.3168 C   0  0  0  0  0  0  0  0  0  0  0  0
   -6.8014   -0.0570    0.6981 C   0  0  0  0  0  0  0  0  0  0  0  0
   -0.7808    3.6977   -1.3355 C   0  0  0  0  0  0  0  0  0  0  0  0
   -1.8666    2.8545   -1.6198 C   0  0  0  0  0  0  0  0  0  0  0  0
    1.2245    4.2231   -0.1344 C   0  0  0  0  0  0  0  0  0  0  0  0
    4.2069    0.1256    0.6422 C   0  0  0  0  0  0  0  0  0  0  0  0
   -0.5903    4.8826   -2.0564 C   0  0  0  0  0  0  0  0  0  0  0  0
    2.3379    3.9381    0.7974 C   0  0  0  0  0  0  0  0  0  0  0  0
    3.0769    2.6567    0.7118 C   0  0  0  0  0  0  0  0  0  0  0  0
    3.7845    0.7208   -0.5483 C   0  0  0  0  0  0  0  0  0  0  0  0
    4.1597    0.8227    1.8503 C   0  0  0  0  0  0  0  0  0  0  0  0
    5.9901   -3.3029   -1.5462 C   0  0  0  0  0  0  0  0  0  0  0  0
    0.4968    5.6831   -1.7496 C   0  0  0  0  0  0  0  0  0  0  0  0
    3.2138    1.9899   -0.5126 C   0  0  0  0  0  0  0  0  0  0  0  0
    3.5881    2.0933    1.8865 C   0  0  0  0  0  0  0  0  0  0  0  0
   -3.8968    1.4312   -2.4116 C   0  0  0  0  0  0  0  0  0  0  0  0
   -0.2471   -1.3927   -0.7647 H   0  0  0  0  0  0  0  0  0  0  0  0
   -1.7203   -5.0421   -2.1892 H   0  0  0  0  0  0  0  0  0  0  0  0
   -1.3985   -4.9423   -0.4885 H   0  0  0  0  0  0  0  0  0  0  0  0
   -3.6705   -3.6777   -2.0426 H   0  0  0  0  0  0  0  0  0  0  0  0
   -3.7326   -4.7329   -0.6245 H   0  0  0  0  0  0  0  0  0  0  0  0
   -0.4570   -3.8193    1.1249 H   0  0  0  0  0  0  0  0  0  0  0  0
   -0.1112   -2.2068    1.6471 H   0  0  0  0  0  0  0  0  0  0  0  0
   -0.2506   -1.8365   -3.0415 H   0  0  0  0  0  0  0  0  0  0  0  0
   -1.0030   -3.2913   -3.6691 H   0  0  0  0  0  0  0  0  0  0  0  0
   -2.0039   -2.0488   -2.8913 H   0  0  0  0  0  0  0  0  0  0  0  0
   -5.4175   -2.9521    0.0998 H   0  0  0  0  0  0  0  0  0  0  0  0
    1.9484   -1.0645    1.0824 H   0  0  0  0  0  0  0  0  0  0  0  0
    1.2862   -5.1374   -0.1019 H   0  0  0  0  0  0  0  0  0  0  0  0
    3.6925   -5.4184   -0.5295 H   0  0  0  0  0  0  0  0  0  0  0  0
    0.5230    1.8867    1.2545 H   0  0  0  0  0  0  0  0  0  0  0  0
   -2.5590    0.4083    3.6122 H   0  0  0  0  0  0  0  0  0  0  0  0
   -4.2973    0.0283    3.8401 H   0  0  0  0  0  0  0  0  0  0  0  0
   -3.7411    1.7162    3.8358 H   0  0  0  0  0  0  0  0  0  0  0  0
   -7.0322   -0.5986   -0.2248 H   0  0  0  0  0  0  0  0  0  0  0  0
   -6.3379    0.9062    0.4618 H   0  0  0  0  0  0  0  0  0  0  0  0
   -7.7338    0.1265    1.2389 H   0  0  0  0  0  0  0  0  0  0  0  0
   -2.5007    3.1999   -2.4297 H   0  0  0  0  0  0  0  0  0  0  0  0
   -1.2758    5.1877   -2.8418 H   0  0  0  0  0  0  0  0  0  0  0  0
    3.8567    0.1879   -1.4921 H   0  0  0  0  0  0  0  0  0  0  0  0
    4.5145    0.3630    2.7683 H   0  0  0  0  0  0  0  0  0  0  0  0
    7.0689   -3.4783   -1.5768 H   0  0  0  0  0  0  0  0  0  0  0  0
    5.7978   -2.2589   -1.8132 H   0  0  0  0  0  0  0  0  0  0  0  0
    5.5065   -3.9699   -2.2668 H   0  0  0  0  0  0  0  0  0  0  0  0
    0.6681    6.6131   -2.2814 H   0  0  0  0  0  0  0  0  0  0  0  0
    2.8568    2.4277   -1.4404 H   0  0  0  0  0  0  0  0  0  0  0  0
    3.5012    2.6066    2.8402 H   0  0  0  0  0  0  0  0  0  0  0  0
   -4.4067    2.3654   -2.1503 H   0  0  0  0  0  0  0  0  0  0  0  0
   -4.6908    0.6994   -2.5993 H   0  0  0  0  0  0  0  0  0  0  0  0
   -3.3183    1.4904   -3.3403 H   0  0  0  0  0  0  0  0  0  0  0  0
  1 16  1  0  0  0  0
  1 25  1  0  0  0  0
  2 20  1  0  0  0  0
  2 30  1  0  0  0  0
  3 21  1  0  0  0  0
  3 32  1  0  0  0  0
  4 24  1  0  0  0  0
  4 36  1  0  0  0  0
  5 27  1  0  0  0  0
  5 42  1  0  0  0  0
  6 29  1  0  0  0  0
  6 46  1  0  0  0  0
  7 38  2  0  0  0  0
  8 10  1  0  0  0  0
  8 12  1  0  0  0  0
  8 17  1  0  0  0  0
  9 35  2  0  0  0  0
  9 43  1  0  0  0  0
 10 11  1  0  0  0  0
 10 15  1  0  0  0  0
 10 47  1  0  0  0  0
 11 14  1  0  0  0  0
 11 16  2  0  0  0  0
 12 13  1  0  0  0  0
 12 48  1  0  0  0  0
 12 49  1  0  0  0  0
 13 14  1  0  0  0  0
 13 50  1  0  0  0  0
 13 51  1  0  0  0  0
 14 18  2  0  0  0  0
 15 19  1  0  0  0  0
 15 52  1  0  0  0  0
 15 53  1  0  0  0  0
 16 20  1  0  0  0  0
 17 54  1  0  0  0  0
 17 55  1  0  0  0  0
 17 56  1  0  0  0  0
 18 21  1  0  0  0  0
 18 57  1  0  0  0  0
 19 22  2  0  0  0  0
 19 23  1  0  0  0  0
 20 21  2  0  0  0  0
 22 24  1  0  0  0  0
 22 58  1  0  0  0  0
 23 26  2  0  0  0  0
 23 59  1  0  0  0  0
 24 27  2  0  0  0  0
 25 28  1  0  0  0  0
 25 29  2  0  0  0  0
 26 27  1  0  0  0  0
 26 60  1  0  0  0  0
 28 31  2  0  0  0  0
 28 61  1  0  0  0  0
 29 34  1  0  0  0  0
 30 62  1  0  0  0  0
 30 63  1  0  0  0  0
 30 64  1  0  0  0  0
 31 33  1  0  0  0  0
 31 35  1  0  0  0  0
 32 65  1  0  0  0  0
 32 66  1  0  0  0  0
 32 67  1  0  0  0  0
 33 34  2  0  0  0  0
 33 37  1  0  0  0  0
 34 68  1  0  0  0  0
 35 38  1  0  0  0  0
 36 40  2  0  0  0  0
 36 41  1  0  0  0  0
 37 43  2  0  0  0  0
 37 69  1  0  0  0  0
 38 39  1  0  0  0  0
 39 44  2  0  0  0  0
 39 45  1  0  0  0  0
 40 44  1  0  0  0  0
 40 70  1  0  0  0  0
 41 45  2  0  0  0  0
 41 71  1  0  0  0  0
 42 72  1  0  0  0  0
 42 73  1  0  0  0  0
 42 74  1  0  0  0  0
 43 75  1  0  0  0  0
 44 76  1  0  0  0  0
 45 77  1  0  0  0  0
 46 78  1  0  0  0  0
 46 79  1  0  0  0  0
 46 80  1  0  0  0  0
M  END
> <PUBCHEM_COMPOUND_CID>
128108

> <PUBCHEM_CONFORMER_RMSD>
1

> <PUBCHEM_CONFORMER_DIVERSEORDER>
1
4
14
15
11
9
16
13
12
10
8
2
5
3
17
18
7
6

> <PUBCHEM_MMFF94_PARTIAL_CHARGES>
56
1 -0.17
10 0.41
11 -0.14
12 0.27
13 0.14
14 -0.14
15 0.14
16 0.08
17 0.27
18 -0.15
19 -0.14
2 -0.36
20 0.08
21 0.08
22 -0.15
23 -0.15
24 0.08
25 0.08
26 -0.15
27 0.08
28 -0.15
29 0.08
3 -0.36
30 0.28
32 0.28
34 -0.15
35 0.4
36 0.08
37 -0.15
38 0.4
39 0.09
4 -0.17
40 -0.15
41 -0.15
42 0.28
43 0.16
44 -0.15
45 -0.15
46 0.28
5 -0.36
57 0.15
58 0.15
59 0.15
6 -0.36
60 0.15
61 0.15
68 0.15
69 0.15
7 -0.57
70 0.15
71 0.15
75 0.15
76 0.15
77 0.15
8 -0.81
9 -0.62

> <PUBCHEM_EFFECTIVE_ROTOR_COUNT>
5.2

> <PUBCHEM_PHARMACOPHORE_FEATURES>
15
1 1 acceptor
1 2 acceptor
1 3 acceptor
1 4 acceptor
1 5 acceptor
1 6 acceptor
1 7 acceptor
1 8 cation
1 9 acceptor
6 11 14 16 18 20 21 rings
6 19 22 23 24 26 27 rings
6 25 28 29 31 33 34 rings
6 36 39 40 41 44 45 rings
6 8 10 11 12 13 14 rings
6 9 31 33 35 37 43 rings

> <PUBCHEM_HEAVY_ATOM_COUNT>
46

> <PUBCHEM_ATOM_DEF_STEREO_COUNT>
0

> <PUBCHEM_ATOM_UDEF_STEREO_COUNT>
1

> <PUBCHEM_BOND_DEF_STEREO_COUNT>
0

> <PUBCHEM_BOND_UDEF_STEREO_COUNT>
0

> <PUBCHEM_ISOTOPIC_ATOM_COUNT>
0

> <PUBCHEM_COMPONENT_COUNT>
1

> <PUBCHEM_CACTVS_TAUTO_COUNT>
1

> <PUBCHEM_CONFORMER_ID>
0001F46C00000001

> <PUBCHEM_MMFF94_ENERGY>
220.0773

> <PUBCHEM_FEATURE_SELFOVERLAP>
76.198

> <PUBCHEM_SHAPE_FINGERPRINT>
10581848 31 16756613033624385623
10653451 467 17903929851387804729
11513181 2 17482001433730026438
12218070 45 17404555154890747200
12422481 6 18334300894452021473
12786520 15 17691734079206746410
1361 2 17904478854610965074
13761468 95 17695081998046523178
15297060 5 17407971341432886680
15320467 1 17976812405093736038
15351339 4 16176208779909846104
15400415 2 17690284128724597353
15448158 6 18341620330172557212
16112460 7 18051131698750534280
16993438 75 17686627835817623466
19319366 153 17621323871847757927
20764821 26 18119787330718285228
20775438 99 17692478568890342343
21133410 38 17839747311171260979
463206 1 18267008471723260052
508706 21 18048025277801237710
66674814 147 16970803366112903638

> <PUBCHEM_SHAPE_MULTIPOLES>
895.61
10.81
8.87
2.19
1.98
5.22
-0.11
-7.81
-3.38
-6.93
4.26
1.69
1.01
1.39

> <PUBCHEM_SHAPE_SELFOVERLAP>
1999.743

> <PUBCHEM_SHAPE_VOLUME>
473.1

> <PUBCHEM_COORDINATE_TYPE>
2
5
10

$$$$
