102121497
  -OEChem-09062013593D

 89 95  0     1  0  0  0  0  0999 V2000
    3.4178   -1.4838    2.5656 O   0  5  0  0  0  0  0  0  0  0  0  0
    0.0529   -0.9936   -0.4493 O   0  0  0  0  0  0  0  0  0  0  0  0
   -0.9063   -3.3880   -1.6213 O   0  0  0  0  0  0  0  0  0  0  0  0
    0.6916   -5.6098   -1.6592 O   0  0  0  0  0  0  0  0  0  0  0  0
   -0.7377   -2.7460    1.7421 O   0  0  0  0  0  0  0  0  0  0  0  0
    0.8061    4.4122    0.5105 O   0  0  0  0  0  0  0  0  0  0  0  0
    2.9383    5.8181   -0.3407 O   0  0  0  0  0  0  0  0  0  0  0  0
    3.9068   -0.9182    1.3994 N   0  3  2  0  0  0  0  0  0  0  0  0
   -5.8341    0.2340   -0.6510 N   0  0  1  0  0  0  0  0  0  0  0  0
    2.7400   -0.7051    0.4119 C   0  0  2  0  0  0  0  0  0  0  0  0
    4.9377   -1.8423    0.7928 C   0  0  0  0  0  0  0  0  0  0  0  0
    2.1634   -2.0425   -0.0595 C   0  0  0  0  0  0  0  0  0  0  0  0
    4.3628   -3.2141    0.4724 C   0  0  0  0  0  0  0  0  0  0  0  0
    2.9735   -3.1926   -0.1078 C   0  0  0  0  0  0  0  0  0  0  0  0
    3.0685    0.1556   -0.8460 C   0  0  0  0  0  0  0  0  0  0  0  0
    4.5622    0.3715    1.7973 C   0  0  0  0  0  0  0  0  0  0  0  0
    0.8285   -2.1327   -0.5054 C   0  0  0  0  0  0  0  0  0  0  0  0
    2.4543   -4.3870   -0.6335 C   0  0  0  0  0  0  0  0  0  0  0  0
    3.0168    1.6603   -0.6828 C   0  0  0  0  0  0  0  0  0  0  0  0
   -4.4774    0.8316   -0.6091 C   0  0  2  0  0  0  0  0  0  0  0  0
    0.3391   -3.3179   -1.0677 C   0  0  0  0  0  0  0  0  0  0  0  0
   -3.4895   -0.1895   -0.0597 C   0  0  0  0  0  0  0  0  0  0  0  0
    1.1522   -4.4442   -1.1248 C   0  0  0  0  0  0  0  0  0  0  0  0
   -3.8966   -1.1119    0.9163 C   0  0  0  0  0  0  0  0  0  0  0  0
   -6.2837   -0.2005    0.6766 C   0  0  0  0  0  0  0  0  0  0  0  0
   -5.3510   -1.2572    1.2831 C   0  0  0  0  0  0  0  0  0  0  0  0
   -4.4035    2.1819    0.1705 C   0  0  0  0  0  0  0  0  0  0  0  0
   -1.2297   -1.0892    0.0442 C   0  0  0  0  0  0  0  0  0  0  0  0
   -2.1587   -0.2051   -0.5069 C   0  0  0  0  0  0  0  0  0  0  0  0
    1.8869    2.3020   -0.1526 C   0  0  0  0  0  0  0  0  0  0  0  0
    4.0923    2.4447   -1.1274 C   0  0  0  0  0  0  0  0  0  0  0  0
   -2.9497   -1.9737    1.4887 C   0  0  0  0  0  0  0  0  0  0  0  0
   -1.6165   -1.9466    1.0747 C   0  0  0  0  0  0  0  0  0  0  0  0
   -6.8257    1.0945   -1.2892 C   0  0  0  0  0  0  0  0  0  0  0  0
   -3.0305    2.8117    0.2495 C   0  0  0  0  0  0  0  0  0  0  0  0
    1.8501    3.6992   -0.0434 C   0  0  0  0  0  0  0  0  0  0  0  0
    4.0605    3.8338   -1.0068 C   0  0  0  0  0  0  0  0  0  0  0  0
    2.9455    4.4601   -0.4567 C   0  0  0  0  0  0  0  0  0  0  0  0
   -2.4211    3.3560   -0.8898 C   0  0  0  0  0  0  0  0  0  0  0  0
   -2.3426    2.8380    1.4733 C   0  0  0  0  0  0  0  0  0  0  0  0
   -0.4517    3.8723    0.4033 C   0  0  0  0  0  0  0  0  0  0  0  0
   -1.0132   -3.0856   -3.0102 C   0  0  0  0  0  0  0  0  0  0  0  0
    0.0549   -6.5237   -0.7684 C   0  0  0  0  0  0  0  0  0  0  0  0
   -1.1325    3.8865   -0.8154 C   0  0  0  0  0  0  0  0  0  0  0  0
   -1.0603    3.3764    1.5544 C   0  0  0  0  0  0  0  0  0  0  0  0
   -0.1200   -2.1991    2.9056 C   0  0  0  0  0  0  0  0  0  0  0  0
    2.4294    6.5595   -1.4474 C   0  0  0  0  0  0  0  0  0  0  0  0
    1.9864   -0.2122    1.0385 H   0  0  0  0  0  0  0  0  0  0  0  0
    5.7546   -1.9289    1.5189 H   0  0  0  0  0  0  0  0  0  0  0  0
    5.3257   -1.3503   -0.1036 H   0  0  0  0  0  0  0  0  0  0  0  0
    4.3244   -3.8058    1.3963 H   0  0  0  0  0  0  0  0  0  0  0  0
    5.0464   -3.7296   -0.2128 H   0  0  0  0  0  0  0  0  0  0  0  0
    2.3562   -0.0642   -1.6535 H   0  0  0  0  0  0  0  0  0  0  0  0
    4.0432   -0.1336   -1.2538 H   0  0  0  0  0  0  0  0  0  0  0  0
    3.7795    1.0537    2.1376 H   0  0  0  0  0  0  0  0  0  0  0  0
    5.2510    0.1488    2.6182 H   0  0  0  0  0  0  0  0  0  0  0  0
    5.1165    0.7626    0.9439 H   0  0  0  0  0  0  0  0  0  0  0  0
    3.0767   -5.2791   -0.6620 H   0  0  0  0  0  0  0  0  0  0  0  0
   -4.1860    1.0183   -1.6523 H   0  0  0  0  0  0  0  0  0  0  0  0
   -7.2877   -0.6400    0.6119 H   0  0  0  0  0  0  0  0  0  0  0  0
   -6.3757    0.6488    1.3639 H   0  0  0  0  0  0  0  0  0  0  0  0
   -5.6759   -2.2450    0.9301 H   0  0  0  0  0  0  0  0  0  0  0  0
   -5.4590   -1.2445    2.3743 H   0  0  0  0  0  0  0  0  0  0  0  0
   -5.0678    2.9216   -0.2936 H   0  0  0  0  0  0  0  0  0  0  0  0
   -4.7735    2.0538    1.1947 H   0  0  0  0  0  0  0  0  0  0  0  0
   -1.8403    0.4780   -1.2909 H   0  0  0  0  0  0  0  0  0  0  0  0
    1.0450    1.7008    0.1777 H   0  0  0  0  0  0  0  0  0  0  0  0
    4.9715    1.9761   -1.5632 H   0  0  0  0  0  0  0  0  0  0  0  0
   -3.2588   -2.6743    2.2619 H   0  0  0  0  0  0  0  0  0  0  0  0
   -6.4764    1.4297   -2.2719 H   0  0  0  0  0  0  0  0  0  0  0  0
   -7.0745    1.9751   -0.6879 H   0  0  0  0  0  0  0  0  0  0  0  0
   -7.7526    0.5361   -1.4624 H   0  0  0  0  0  0  0  0  0  0  0  0
    4.9113    4.4203   -1.3431 H   0  0  0  0  0  0  0  0  0  0  0  0
   -2.9422    3.3554   -1.8437 H   0  0  0  0  0  0  0  0  0  0  0  0
   -2.7993    2.4280    2.3707 H   0  0  0  0  0  0  0  0  0  0  0  0
   -2.0691   -3.1334   -3.2899 H   0  0  0  0  0  0  0  0  0  0  0  0
   -0.4600   -3.8167   -3.6079 H   0  0  0  0  0  0  0  0  0  0  0  0
   -0.6434   -2.0760   -3.2160 H   0  0  0  0  0  0  0  0  0  0  0  0
   -0.2695   -7.3944   -1.3447 H   0  0  0  0  0  0  0  0  0  0  0  0
   -0.8238   -6.0625   -0.3062 H   0  0  0  0  0  0  0  0  0  0  0  0
    0.7551   -6.8560    0.0045 H   0  0  0  0  0  0  0  0  0  0  0  0
   -0.6689    4.3022   -1.7054 H   0  0  0  0  0  0  0  0  0  0  0  0
   -0.5383    3.3893    2.5067 H   0  0  0  0  0  0  0  0  0  0  0  0
    0.6758   -2.8786    3.2223 H   0  0  0  0  0  0  0  0  0  0  0  0
   -0.8518   -2.1144    3.7149 H   0  0  0  0  0  0  0  0  0  0  0  0
    0.3180   -1.2183    2.6954 H   0  0  0  0  0  0  0  0  0  0  0  0
    2.4759    7.6230   -1.1976 H   0  0  0  0  0  0  0  0  0  0  0  0
    3.0383    6.3829   -2.3396 H   0  0  0  0  0  0  0  0  0  0  0  0
    1.3866    6.2925   -1.6456 H   0  0  0  0  0  0  0  0  0  0  0  0
  1  8  1  0  0  0  0
  2 17  1  0  0  0  0
  2 28  1  0  0  0  0
  3 21  1  0  0  0  0
  3 42  1  0  0  0  0
  4 23  1  0  0  0  0
  4 43  1  0  0  0  0
  5 33  1  0  0  0  0
  5 46  1  0  0  0  0
  6 36  1  0  0  0  0
  6 41  1  0  0  0  0
  7 38  1  0  0  0  0
  7 47  1  0  0  0  0
  8 10  1  0  0  0  0
  8 11  1  0  0  0  0
  8 16  1  0  0  0  0
  9 20  1  0  0  0  0
  9 25  1  0  0  0  0
  9 34  1  0  0  0  0
 10 12  1  0  0  0  0
 10 15  1  0  0  0  0
 10 48  1  0  0  0  0
 11 13  1  0  0  0  0
 11 49  1  0  0  0  0
 11 50  1  0  0  0  0
 12 14  1  0  0  0  0
 12 17  2  0  0  0  0
 13 14  1  0  0  0  0
 13 51  1  0  0  0  0
 13 52  1  0  0  0  0
 14 18  2  0  0  0  0
 15 19  1  0  0  0  0
 15 53  1  0  0  0  0
 15 54  1  0  0  0  0
 16 55  1  0  0  0  0
 16 56  1  0  0  0  0
 16 57  1  0  0  0  0
 17 21  1  0  0  0  0
 18 23  1  0  0  0  0
 18 58  1  0  0  0  0
 19 30  2  0  0  0  0
 19 31  1  0  0  0  0
 20 22  1  0  0  0  0
 20 27  1  0  0  0  0
 20 59  1  0  0  0  0
 21 23  2  0  0  0  0
 22 24  1  0  0  0  0
 22 29  2  0  0  0  0
 24 26  1  0  0  0  0
 24 32  2  0  0  0  0
 25 26  1  0  0  0  0
 25 60  1  0  0  0  0
 25 61  1  0  0  0  0
 26 62  1  0  0  0  0
 26 63  1  0  0  0  0
 27 35  1  0  0  0  0
 27 64  1  0  0  0  0
 27 65  1  0  0  0  0
 28 29  1  0  0  0  0
 28 33  2  0  0  0  0
 29 66  1  0  0  0  0
 30 36  1  0  0  0  0
 30 67  1  0  0  0  0
 31 37  2  0  0  0  0
 31 68  1  0  0  0  0
 32 33  1  0  0  0  0
 32 69  1  0  0  0  0
 34 70  1  0  0  0  0
 34 71  1  0  0  0  0
 34 72  1  0  0  0  0
 35 39  2  0  0  0  0
 35 40  1  0  0  0  0
 36 38  2  0  0  0  0
 37 38  1  0  0  0  0
 37 73  1  0  0  0  0
 39 44  1  0  0  0  0
 39 74  1  0  0  0  0
 40 45  2  0  0  0  0
 40 75  1  0  0  0  0
 41 44  2  0  0  0  0
 41 45  1  0  0  0  0
 42 76  1  0  0  0  0
 42 77  1  0  0  0  0
 42 78  1  0  0  0  0
 43 79  1  0  0  0  0
 43 80  1  0  0  0  0
 43 81  1  0  0  0  0
 44 82  1  0  0  0  0
 45 83  1  0  0  0  0
 46 84  1  0  0  0  0
 46 85  1  0  0  0  0
 46 86  1  0  0  0  0
 47 87  1  0  0  0  0
 47 88  1  0  0  0  0
 47 89  1  0  0  0  0
M  CHG  2   1  -1   8   1
M  END
> <PUBCHEM_COMPOUND_CID>
102121497

> <PUBCHEM_CONFORMER_RMSD>
1

> <PUBCHEM_CONFORMER_DIVERSEORDER>
1
4
2
6
5
3

> <PUBCHEM_MMFF94_PARTIAL_CHARGES>
57
1 -0.75
10 0.4
11 0.26
12 -0.14
13 0.14
14 -0.14
15 0.14
16 0.26
17 0.08
18 -0.15
19 -0.14
2 -0.17
20 0.41
21 0.08
22 -0.14
23 0.08
24 -0.14
25 0.27
26 0.14
27 0.14
28 0.08
29 -0.15
3 -0.36
30 -0.15
31 -0.15
32 -0.15
33 0.08
34 0.27
35 -0.14
36 0.08
37 -0.15
38 0.08
39 -0.15
4 -0.36
40 -0.15
41 0.08
42 0.28
43 0.28
44 -0.15
45 -0.15
46 0.28
47 0.28
5 -0.36
58 0.15
6 -0.17
66 0.15
67 0.15
68 0.15
69 0.15
7 -0.36
73 0.15
74 0.15
75 0.15
8 -0.02
82 0.15
83 0.15
9 -0.81

> <PUBCHEM_EFFECTIVE_ROTOR_COUNT>
6

> <PUBCHEM_PHARMACOPHORE_FEATURES>
14
1 1 anion
1 2 acceptor
1 3 acceptor
1 4 acceptor
1 5 acceptor
1 6 acceptor
1 7 acceptor
1 9 cation
6 12 14 17 18 21 23 rings
6 19 30 31 36 37 38 rings
6 22 24 28 29 32 33 rings
6 35 39 40 41 44 45 rings
6 8 10 11 12 13 14 rings
6 9 20 22 24 25 26 rings

> <PUBCHEM_HEAVY_ATOM_COUNT>
47

> <PUBCHEM_ATOM_DEF_STEREO_COUNT>
3

> <PUBCHEM_ATOM_UDEF_STEREO_COUNT>
0

> <PUBCHEM_BOND_DEF_STEREO_COUNT>
0

> <PUBCHEM_BOND_UDEF_STEREO_COUNT>
0

> <PUBCHEM_ISOTOPIC_ATOM_COUNT>
0

> <PUBCHEM_COMPONENT_COUNT>
1

> <PUBCHEM_CACTVS_TAUTO_COUNT>
40

> <PUBCHEM_CONFORMER_ID>
0616401900000001

> <PUBCHEM_MMFF94_ENERGY>
214.4972

> <PUBCHEM_FEATURE_SELFOVERLAP>
71.111

> <PUBCHEM_SHAPE_FINGERPRINT>
10290309 65 18121510321004838797
11513181 2 18341614883695025439
12107698 1 18265890255249510187
140371 6 18339084761648215499
14114211 80 17982475950839206857
14659021 117 16610254863017977081
14725015 67 18261662676185258153
15200665 1 17978515552537054040
15264996 163 17544195342581495869
15320467 1 18410298046414550068
15400415 2 18050007993841869117
15968369 26 18265028324349515417
19311894 1 17185039367532758531
19319366 153 18197497539477989516
20764821 26 18050030816690275152
21133410 62 17904186372477522783
24771750 20 18335705009566836517
3493558 16 17768531590657530859
373842 8 18409729543057462921
463206 1 16683454836983850961

> <PUBCHEM_SHAPE_MULTIPOLES>
916.19
10.57
9.8
1.92
11.75
5.5
-0.37
0.02
-1.04
-8.91
4.34
-0.22
-1.38
-0.45

> <PUBCHEM_SHAPE_SELFOVERLAP>
2011.035

> <PUBCHEM_SHAPE_VOLUME>
494.7

> <PUBCHEM_COORDINATE_TYPE>
2
5
10

$$$$
