102121498
  -OEChem-09062014003D

 86 92  0     1  0  0  0  0  0999 V2000
    5.9181    0.0861    1.1131 O   0  5  0  0  0  0  0  0  0  0  0  0
    0.0135   -1.1623    0.8438 O   0  0  0  0  0  0  0  0  0  0  0  0
    0.8290   -2.7147   -1.5267 O   0  0  0  0  0  0  0  0  0  0  0  0
   -1.6883    4.3549    0.7183 O   0  0  0  0  0  0  0  0  0  0  0  0
    1.1702   -3.4824    1.8766 O   0  0  0  0  0  0  0  0  0  0  0  0
   -0.1335   -5.8949    1.6180 O   0  0  0  0  0  0  0  0  0  0  0  0
   -4.1746    5.1104   -0.0603 O   0  0  0  0  0  0  0  0  0  0  0  0
    5.5976    1.1581    0.3003 N   0  3  2  0  0  0  0  0  0  0  0  0
   -3.6953   -1.3331   -1.2655 N   0  0  2  0  0  0  0  0  0  0  0  0
    4.0991    1.4929    0.4519 C   0  0  2  0  0  0  0  0  0  0  0  0
    5.8932    0.8024   -1.1413 C   0  0  0  0  0  0  0  0  0  0  0  0
    3.2487    0.3181   -0.0118 C   0  0  0  0  0  0  0  0  0  0  0  0
    5.0729   -0.3845   -1.6388 C   0  0  0  0  0  0  0  0  0  0  0  0
    3.6839   -0.4999   -1.0663 C   0  0  0  0  0  0  0  0  0  0  0  0
    3.6871    2.8077   -0.2691 C   0  0  0  0  0  0  0  0  0  0  0  0
    6.4753    2.3003    0.7301 C   0  0  0  0  0  0  0  0  0  0  0  0
   -2.6215   -1.1265   -0.2655 C   0  0  2  0  0  0  0  0  0  0  0  0
    2.0156    0.0471    0.6062 C   0  0  0  0  0  0  0  0  0  0  0  0
    2.8439   -1.5214   -1.5335 C   0  0  0  0  0  0  0  0  0  0  0  0
   -1.9242   -2.4094    0.1725 C   0  0  0  0  0  0  0  0  0  0  0  0
    2.2644    3.2535   -0.0232 C   0  0  0  0  0  0  0  0  0  0  0  0
    1.2010   -0.9975    0.1587 C   0  0  0  0  0  0  0  0  0  0  0  0
   -2.5731   -3.6513    0.0480 C   0  0  0  0  0  0  0  0  0  0  0  0
   -4.5950   -2.4294   -0.8877 C   0  0  0  0  0  0  0  0  0  0  0  0
   -3.8888   -3.7697   -0.6763 C   0  0  0  0  0  0  0  0  0  0  0  0
    1.6021   -1.7575   -0.9410 C   0  0  0  0  0  0  0  0  0  0  0  0
   -3.1692   -0.3786    0.9827 C   0  0  0  0  0  0  0  0  0  0  0  0
   -0.6350   -2.3742    0.7392 C   0  0  0  0  0  0  0  0  0  0  0  0
   -1.9514   -4.8144    0.5275 C   0  0  0  0  0  0  0  0  0  0  0  0
   -3.1626   -1.4998   -2.6181 C   0  0  0  0  0  0  0  0  0  0  0  0
    1.8805    3.7594    1.2268 C   0  0  0  0  0  0  0  0  0  0  0  0
    1.3097    3.1590   -1.0469 C   0  0  0  0  0  0  0  0  0  0  0  0
   -3.4486    1.0808    0.7147 C   0  0  0  0  0  0  0  0  0  0  0  0
   -0.0404   -3.5326    1.2507 C   0  0  0  0  0  0  0  0  0  0  0  0
   -0.7005   -4.7521    1.1400 C   0  0  0  0  0  0  0  0  0  0  0  0
    0.5578    4.1361    1.4603 C   0  0  0  0  0  0  0  0  0  0  0  0
   -0.0124    3.5354   -0.8185 C   0  0  0  0  0  0  0  0  0  0  0  0
   -0.3886    3.9947    0.4455 C   0  0  0  0  0  0  0  0  0  0  0  0
   -2.4189    2.0210    0.8595 C   0  0  0  0  0  0  0  0  0  0  0  0
   -4.7154    1.5124    0.3056 C   0  0  0  0  0  0  0  0  0  0  0  0
   -2.6494    3.3733    0.5816 C   0  0  0  0  0  0  0  0  0  0  0  0
   -4.9503    2.8648    0.0512 C   0  0  0  0  0  0  0  0  0  0  0  0
    1.3868   -3.4031   -2.6443 C   0  0  0  0  0  0  0  0  0  0  0  0
   -3.9214    3.7958    0.1934 C   0  0  0  0  0  0  0  0  0  0  0  0
    0.6890   -6.6353    0.7181 C   0  0  0  0  0  0  0  0  0  0  0  0
   -3.9810    5.5604   -1.3997 C   0  0  0  0  0  0  0  0  0  0  0  0
    3.9767    1.6088    1.5379 H   0  0  0  0  0  0  0  0  0  0  0  0
    5.6970    1.6986   -1.7378 H   0  0  0  0  0  0  0  0  0  0  0  0
    6.9658    0.5830   -1.2009 H   0  0  0  0  0  0  0  0  0  0  0  0
    5.6109   -1.3045   -1.3742 H   0  0  0  0  0  0  0  0  0  0  0  0
    5.0231   -0.3454   -2.7335 H   0  0  0  0  0  0  0  0  0  0  0  0
    4.3294    3.6378    0.0452 H   0  0  0  0  0  0  0  0  0  0  0  0
    3.8409    2.7148   -1.3509 H   0  0  0  0  0  0  0  0  0  0  0  0
    6.1462    2.6165    1.7232 H   0  0  0  0  0  0  0  0  0  0  0  0
    7.5029    1.9261    0.7688 H   0  0  0  0  0  0  0  0  0  0  0  0
    6.3989    3.1066   -0.0014 H   0  0  0  0  0  0  0  0  0  0  0  0
   -1.8641   -0.4800   -0.7308 H   0  0  0  0  0  0  0  0  0  0  0  0
    1.6874    0.6540    1.4473 H   0  0  0  0  0  0  0  0  0  0  0  0
    3.2496   -2.0988   -2.3575 H   0  0  0  0  0  0  0  0  0  0  0  0
   -5.3869   -2.5467   -1.6384 H   0  0  0  0  0  0  0  0  0  0  0  0
   -5.1274   -2.1589    0.0318 H   0  0  0  0  0  0  0  0  0  0  0  0
   -3.6967   -4.2371   -1.6504 H   0  0  0  0  0  0  0  0  0  0  0  0
   -4.5584   -4.4357   -0.1188 H   0  0  0  0  0  0  0  0  0  0  0  0
   -2.4461   -0.4296    1.8085 H   0  0  0  0  0  0  0  0  0  0  0  0
   -4.0670   -0.8589    1.3906 H   0  0  0  0  0  0  0  0  0  0  0  0
   -2.4498   -5.7757    0.4216 H   0  0  0  0  0  0  0  0  0  0  0  0
   -2.6057   -0.6055   -2.9198 H   0  0  0  0  0  0  0  0  0  0  0  0
   -3.9782   -1.6129   -3.3410 H   0  0  0  0  0  0  0  0  0  0  0  0
   -2.4956   -2.3628   -2.7156 H   0  0  0  0  0  0  0  0  0  0  0  0
    2.6092    3.8516    2.0282 H   0  0  0  0  0  0  0  0  0  0  0  0
    1.5887    2.7799   -2.0269 H   0  0  0  0  0  0  0  0  0  0  0  0
    0.2693    4.5155    2.4364 H   0  0  0  0  0  0  0  0  0  0  0  0
   -0.7391    3.4535   -1.6218 H   0  0  0  0  0  0  0  0  0  0  0  0
   -1.4419    1.6808    1.1940 H   0  0  0  0  0  0  0  0  0  0  0  0
   -5.5278    0.8003    0.1862 H   0  0  0  0  0  0  0  0  0  0  0  0
   -5.9414    3.1858   -0.2585 H   0  0  0  0  0  0  0  0  0  0  0  0
    1.3791   -2.5573    2.0870 H   0  0  0  0  0  0  0  0  0  0  0  0
    0.6343   -4.1291   -2.9716 H   0  0  0  0  0  0  0  0  0  0  0  0
    2.2720   -3.9860   -2.3667 H   0  0  0  0  0  0  0  0  0  0  0  0
    1.5571   -2.7352   -3.4959 H   0  0  0  0  0  0  0  0  0  0  0  0
    1.0846   -7.5042    1.2511 H   0  0  0  0  0  0  0  0  0  0  0  0
    1.5289   -6.0247    0.3714 H   0  0  0  0  0  0  0  0  0  0  0  0
    0.1019   -6.9858   -0.1366 H   0  0  0  0  0  0  0  0  0  0  0  0
   -4.6545    5.0326   -2.0824 H   0  0  0  0  0  0  0  0  0  0  0  0
   -2.9416    5.4147   -1.7102 H   0  0  0  0  0  0  0  0  0  0  0  0
   -4.2106    6.6287   -1.4386 H   0  0  0  0  0  0  0  0  0  0  0  0
  1  8  1  0  0  0  0
  2 22  1  0  0  0  0
  2 28  1  0  0  0  0
  3 26  1  0  0  0  0
  3 43  1  0  0  0  0
  4 38  1  0  0  0  0
  4 41  1  0  0  0  0
  5 34  1  0  0  0  0
  5 77  1  0  0  0  0
  6 35  1  0  0  0  0
  6 45  1  0  0  0  0
  7 44  1  0  0  0  0
  7 46  1  0  0  0  0
  8 10  1  0  0  0  0
  8 11  1  0  0  0  0
  8 16  1  0  0  0  0
  9 17  1  0  0  0  0
  9 24  1  0  0  0  0
  9 30  1  0  0  0  0
 10 12  1  0  0  0  0
 10 15  1  0  0  0  0
 10 47  1  0  0  0  0
 11 13  1  0  0  0  0
 11 48  1  0  0  0  0
 11 49  1  0  0  0  0
 12 14  1  0  0  0  0
 12 18  2  0  0  0  0
 13 14  1  0  0  0  0
 13 50  1  0  0  0  0
 13 51  1  0  0  0  0
 14 19  2  0  0  0  0
 15 21  1  0  0  0  0
 15 52  1  0  0  0  0
 15 53  1  0  0  0  0
 16 54  1  0  0  0  0
 16 55  1  0  0  0  0
 16 56  1  0  0  0  0
 17 20  1  0  0  0  0
 17 27  1  0  0  0  0
 17 57  1  0  0  0  0
 18 22  1  0  0  0  0
 18 58  1  0  0  0  0
 19 26  1  0  0  0  0
 19 59  1  0  0  0  0
 20 23  1  0  0  0  0
 20 28  2  0  0  0  0
 21 31  2  0  0  0  0
 21 32  1  0  0  0  0
 22 26  2  0  0  0  0
 23 25  1  0  0  0  0
 23 29  2  0  0  0  0
 24 25  1  0  0  0  0
 24 60  1  0  0  0  0
 24 61  1  0  0  0  0
 25 62  1  0  0  0  0
 25 63  1  0  0  0  0
 27 33  1  0  0  0  0
 27 64  1  0  0  0  0
 27 65  1  0  0  0  0
 28 34  1  0  0  0  0
 29 35  1  0  0  0  0
 29 66  1  0  0  0  0
 30 67  1  0  0  0  0
 30 68  1  0  0  0  0
 30 69  1  0  0  0  0
 31 36  1  0  0  0  0
 31 70  1  0  0  0  0
 32 37  2  0  0  0  0
 32 71  1  0  0  0  0
 33 39  2  0  0  0  0
 33 40  1  0  0  0  0
 34 35  2  0  0  0  0
 36 38  2  0  0  0  0
 36 72  1  0  0  0  0
 37 38  1  0  0  0  0
 37 73  1  0  0  0  0
 39 41  1  0  0  0  0
 39 74  1  0  0  0  0
 40 42  2  0  0  0  0
 40 75  1  0  0  0  0
 41 44  2  0  0  0  0
 42 44  1  0  0  0  0
 42 76  1  0  0  0  0
 43 78  1  0  0  0  0
 43 79  1  0  0  0  0
 43 80  1  0  0  0  0
 45 81  1  0  0  0  0
 45 82  1  0  0  0  0
 45 83  1  0  0  0  0
 46 84  1  0  0  0  0
 46 85  1  0  0  0  0
 46 86  1  0  0  0  0
M  CHG  2   1  -1   8   1
M  END
> <PUBCHEM_COMPOUND_CID>
102121498

> <PUBCHEM_CONFORMER_RMSD>
1

> <PUBCHEM_CONFORMER_DIVERSEORDER>
1
3
4
2

> <PUBCHEM_MMFF94_PARTIAL_CHARGES>
57
1 -0.75
10 0.4
11 0.26
12 -0.14
13 0.14
14 -0.14
15 0.14
16 0.26
17 0.41
18 -0.15
19 -0.15
2 -0.17
20 -0.14
21 -0.14
22 0.08
23 -0.14
24 0.27
25 0.14
26 0.08
27 0.14
28 0.08
29 -0.15
3 -0.36
30 0.27
31 -0.15
32 -0.15
33 -0.14
34 0.08
35 0.08
36 -0.15
37 -0.15
38 0.08
39 -0.15
4 -0.17
40 -0.15
41 0.08
42 -0.15
43 0.28
44 0.08
45 0.28
46 0.28
5 -0.53
58 0.15
59 0.15
6 -0.36
66 0.15
7 -0.36
70 0.15
71 0.15
72 0.15
73 0.15
74 0.15
75 0.15
76 0.15
77 0.45
8 -0.02
9 -0.81

> <PUBCHEM_EFFECTIVE_ROTOR_COUNT>
5

> <PUBCHEM_PHARMACOPHORE_FEATURES>
14
1 1 anion
1 2 acceptor
1 3 acceptor
1 4 acceptor
1 5 donor
1 6 acceptor
1 7 acceptor
1 9 cation
6 12 14 18 19 22 26 rings
6 20 23 28 29 34 35 rings
6 21 31 32 36 37 38 rings
6 33 39 40 41 42 44 rings
6 8 10 11 12 13 14 rings
6 9 17 20 23 24 25 rings

> <PUBCHEM_HEAVY_ATOM_COUNT>
46

> <PUBCHEM_ATOM_DEF_STEREO_COUNT>
3

> <PUBCHEM_ATOM_UDEF_STEREO_COUNT>
0

> <PUBCHEM_BOND_DEF_STEREO_COUNT>
0

> <PUBCHEM_BOND_UDEF_STEREO_COUNT>
0

> <PUBCHEM_ISOTOPIC_ATOM_COUNT>
0

> <PUBCHEM_COMPONENT_COUNT>
1

> <PUBCHEM_CACTVS_TAUTO_COUNT>
40

> <PUBCHEM_CONFORMER_ID>
0616401A00000001

> <PUBCHEM_MMFF94_ENERGY>
202.1881

> <PUBCHEM_FEATURE_SELFOVERLAP>
71.099

> <PUBCHEM_SHAPE_FINGERPRINT>
10290309 65 18120660132428945149
10675989 125 17980207387314270059
10677394 353 17471285159805007090
10864689 126 18051419465954709908
11028528 32 18192992621949708506
11513181 2 17842557345159424309
12608794 3 18051159122063777595
1361 2 18195807363279815609
140371 6 18194690486507781814
14659021 117 18265888236551746744
14725015 67 18267574879009030955
150020 26 17187003631585290352
15320467 1 18410858780344110305
15351339 4 18337940230362965073
15400415 2 18337672992982775552
15890870 6 18408608028565911053
15968369 153 17769090491011141028
17627616 140 18121216481217702757
19319366 153 18193002517015482981
20764821 26 18120920720747340024
21133410 52 17259043109557204639
21133410 62 18261943056631221325
23559900 14 17833546078639205826
4015057 19 17618492620505278215
4144715 1 18119817052551466746
463206 1 18341336707676061281
508706 21 18340773744631366444
5776283 40 17983037560683990526

> <PUBCHEM_SHAPE_MULTIPOLES>
895.61
10.8
10.04
1.71
12.54
2.1
-0.73
1.79
-1.34
-10.67
1.82
0.04
-1.21
1.41

> <PUBCHEM_SHAPE_SELFOVERLAP>
1974.453

> <PUBCHEM_SHAPE_VOLUME>
480.8

> <PUBCHEM_COORDINATE_TYPE>
2
5
10

$$$$
