173713
  -OEChem-09062013383D

 47 49  0     1  0  0  0  0  0999 V2000
    0.8800    0.5640    1.5077 O   0  0  0  0  0  0  0  0  0  0  0  0
    1.4613    3.0799    0.5704 O   0  0  0  0  0  0  0  0  0  0  0  0
    4.9972   -0.9166   -0.2203 O   0  0  0  0  0  0  0  0  0  0  0  0
   -2.8726   -1.3373    0.5390 N   0  3  0  0  0  0  0  0  0  0  0  0
   -1.3246   -0.9948    0.4729 C   0  0  2  0  0  0  0  0  0  0  0  0
   -3.7531   -0.3109   -0.2224 C   0  0  0  0  0  0  0  0  0  0  0  0
   -1.0227    0.4273    0.0432 C   0  0  0  0  0  0  0  0  0  0  0  0
   -3.0290    0.2767   -1.4250 C   0  0  0  0  0  0  0  0  0  0  0  0
   -0.5437   -1.9564   -0.4375 C   0  0  0  0  0  0  0  0  0  0  0  0
   -1.8285    1.0322   -0.9330 C   0  0  0  0  0  0  0  0  0  0  0  0
   -3.2988   -1.2934    2.0188 C   0  0  0  0  0  0  0  0  0  0  0  0
   -3.2127   -2.7415    0.0281 C   0  0  0  0  0  0  0  0  0  0  0  0
    0.0878    1.1163    0.5460 C   0  0  0  0  0  0  0  0  0  0  0  0
    0.9284   -1.6801   -0.3796 C   0  0  0  0  0  0  0  0  0  0  0  0
   -1.5107    2.3072   -1.4109 C   0  0  0  0  0  0  0  0  0  0  0  0
    0.3915    2.3944    0.0768 C   0  0  0  0  0  0  0  0  0  0  0  0
   -0.4037    2.9868   -0.9031 C   0  0  0  0  0  0  0  0  0  0  0  0
    1.4955   -0.7745   -1.2699 C   0  0  0  0  0  0  0  0  0  0  0  0
    1.7157   -2.3317    0.5641 C   0  0  0  0  0  0  0  0  0  0  0  0
    2.8654   -0.5176   -1.2162 C   0  0  0  0  0  0  0  0  0  0  0  0
    3.0857   -2.0748    0.6179 C   0  0  0  0  0  0  0  0  0  0  0  0
    3.6606   -1.1676   -0.2722 C   0  0  0  0  0  0  0  0  0  0  0  0
    1.2309    3.9124    1.7053 C   0  0  0  0  0  0  0  0  0  0  0  0
   -0.9879   -1.1674    1.4985 H   0  0  0  0  0  0  0  0  0  0  0  0
   -4.0131    0.4855    0.4871 H   0  0  0  0  0  0  0  0  0  0  0  0
   -4.6804   -0.8136   -0.5184 H   0  0  0  0  0  0  0  0  0  0  0  0
   -3.7122    0.9536   -1.9512 H   0  0  0  0  0  0  0  0  0  0  0  0
   -2.7243   -0.4978   -2.1366 H   0  0  0  0  0  0  0  0  0  0  0  0
   -0.8803   -1.8891   -1.4800 H   0  0  0  0  0  0  0  0  0  0  0  0
   -0.6906   -3.0007   -0.1403 H   0  0  0  0  0  0  0  0  0  0  0  0
   -4.3788   -1.4615    2.0718 H   0  0  0  0  0  0  0  0  0  0  0  0
   -2.7627   -2.0814    2.5564 H   0  0  0  0  0  0  0  0  0  0  0  0
   -3.0426   -0.3087    2.4214 H   0  0  0  0  0  0  0  0  0  0  0  0
   -2.9833   -2.7951   -1.0388 H   0  0  0  0  0  0  0  0  0  0  0  0
   -2.6447   -3.4740    0.6079 H   0  0  0  0  0  0  0  0  0  0  0  0
   -4.2830   -2.9147    0.1814 H   0  0  0  0  0  0  0  0  0  0  0  0
   -2.1261    2.7817   -2.1704 H   0  0  0  0  0  0  0  0  0  0  0  0
   -0.1688    3.9807   -1.2743 H   0  0  0  0  0  0  0  0  0  0  0  0
    0.8980   -0.2807   -2.0314 H   0  0  0  0  0  0  0  0  0  0  0  0
    1.2786   -3.0376    1.2648 H   0  0  0  0  0  0  0  0  0  0  0  0
    0.3602   -0.0196    2.0805 H   0  0  0  0  0  0  0  0  0  0  0  0
    3.3018    0.1872   -1.9189 H   0  0  0  0  0  0  0  0  0  0  0  0
    3.6996   -2.5833    1.3562 H   0  0  0  0  0  0  0  0  0  0  0  0
    0.8684    3.3199    2.5513 H   0  0  0  0  0  0  0  0  0  0  0  0
    0.5112    4.7004    1.4624 H   0  0  0  0  0  0  0  0  0  0  0  0
    2.1790    4.3790    1.9860 H   0  0  0  0  0  0  0  0  0  0  0  0
    5.2223   -0.2647   -0.9063 H   0  0  0  0  0  0  0  0  0  0  0  0
  1 13  1  0  0  0  0
  1 41  1  0  0  0  0
  2 16  1  0  0  0  0
  2 23  1  0  0  0  0
  3 22  1  0  0  0  0
  3 47  1  0  0  0  0
  4  5  1  0  0  0  0
  4  6  1  0  0  0  0
  4 11  1  0  0  0  0
  4 12  1  0  0  0  0
  5  7  1  0  0  0  0
  5  9  1  0  0  0  0
  5 24  1  0  0  0  0
  6  8  1  0  0  0  0
  6 25  1  0  0  0  0
  6 26  1  0  0  0  0
  7 10  2  0  0  0  0
  7 13  1  0  0  0  0
  8 10  1  0  0  0  0
  8 27  1  0  0  0  0
  8 28  1  0  0  0  0
  9 14  1  0  0  0  0
  9 29  1  0  0  0  0
  9 30  1  0  0  0  0
 10 15  1  0  0  0  0
 11 31  1  0  0  0  0
 11 32  1  0  0  0  0
 11 33  1  0  0  0  0
 12 34  1  0  0  0  0
 12 35  1  0  0  0  0
 12 36  1  0  0  0  0
 13 16  2  0  0  0  0
 14 18  2  0  0  0  0
 14 19  1  0  0  0  0
 15 17  2  0  0  0  0
 15 37  1  0  0  0  0
 16 17  1  0  0  0  0
 17 38  1  0  0  0  0
 18 20  1  0  0  0  0
 18 39  1  0  0  0  0
 19 21  2  0  0  0  0
 19 40  1  0  0  0  0
 20 22  2  0  0  0  0
 20 42  1  0  0  0  0
 21 22  1  0  0  0  0
 21 43  1  0  0  0  0
 23 44  1  0  0  0  0
 23 45  1  0  0  0  0
 23 46  1  0  0  0  0
M  CHG  1   4   1
M  END
> <PUBCHEM_COMPOUND_CID>
173713

> <PUBCHEM_CONFORMER_RMSD>
0.6

> <PUBCHEM_CONFORMER_DIVERSEORDER>
1
4
5
3
2
6

> <PUBCHEM_MMFF94_PARTIAL_CHARGES>
31
1 -0.53
10 -0.14
11 0.5
12 0.5
13 0.08
14 -0.14
15 -0.15
16 0.08
17 -0.15
18 -0.15
19 -0.15
2 -0.36
20 -0.15
21 -0.15
22 0.08
23 0.28
3 -0.53
37 0.15
38 0.15
39 0.15
4 -1.01
40 0.15
41 0.45
42 0.15
43 0.15
47 0.45
5 0.65
6 0.5
7 -0.14
8 0.14
9 0.14

> <PUBCHEM_EFFECTIVE_ROTOR_COUNT>
3.8

> <PUBCHEM_PHARMACOPHORE_FEATURES>
7
1 1 donor
1 2 acceptor
1 3 donor
1 4 cation
6 14 18 19 20 21 22 rings
6 4 5 6 7 8 10 rings
6 7 10 13 15 16 17 rings

> <PUBCHEM_HEAVY_ATOM_COUNT>
23

> <PUBCHEM_ATOM_DEF_STEREO_COUNT>
1

> <PUBCHEM_ATOM_UDEF_STEREO_COUNT>
0

> <PUBCHEM_BOND_DEF_STEREO_COUNT>
0

> <PUBCHEM_BOND_UDEF_STEREO_COUNT>
0

> <PUBCHEM_ISOTOPIC_ATOM_COUNT>
0

> <PUBCHEM_COMPONENT_COUNT>
1

> <PUBCHEM_CACTVS_TAUTO_COUNT>
18

> <PUBCHEM_CONFORMER_ID>
0002A69100000001

> <PUBCHEM_MMFF94_ENERGY>
100.5712

> <PUBCHEM_FEATURE_SELFOVERLAP>
35.546

> <PUBCHEM_SHAPE_FINGERPRINT>
10764073 3 15615581102314746787
10863032 1 17970624078611383382
11112241 14 16412082023323507576
11370993 70 17394999955619119052
11578080 2 16880716788051716100
11640471 11 17390241325497911662
11680986 33 18264481961669580333
12035758 1 18408884006353228825
12054548 360 18408040723277826735
12293681 160 17691946190451641500
12403814 3 17605288276403405941
12553582 1 18410855430343374855
12788726 201 17909546164464706624
13027679 85 18410294679455335821
13140716 1 18339087106937820355
133893 2 18125722533134223407
14142880 1 17844251713719847049
14787075 74 18189624998221930774
14790565 3 17690840056195557917
14955137 171 17767453167493634627
16945 1 17896615989320794815
17357779 13 18342443829721394839
19591789 44 17976823412889122332
20510252 161 18120374259141673975
20600515 1 17916886680480745518
20691752 17 17828205724513362103
20715895 44 17248631872618854477
20775438 99 17690231236476518335
20905425 154 18339086002814727644
22182313 1 18044641221740095679
23419403 2 18263064660657807021
23557571 272 18198062469879942422
23558518 356 16973922117875564749
23559900 14 17834659519062395282
2748010 2 18189883400396827205
352729 6 17688587161080062511
539174 4 17981354444673079393
81228 2 17909843032614379001
84936 31 17632010978529141996
9981440 41 17835783219566005538

> <PUBCHEM_SHAPE_MULTIPOLES>
450.74
6
4.06
1.49
2.41
3.59
0.31
-4.44
-0.2
0.53
1.14
-0.47
0.56
1.33

> <PUBCHEM_SHAPE_SELFOVERLAP>
968.203

> <PUBCHEM_SHAPE_VOLUME>
249.9

> <PUBCHEM_COORDINATE_TYPE>
2
5
10

$$$$
