160500
  -OEChem-09062014103D

 45 48  0     1  0  0  0  0  0999 V2000
    0.8349    2.5340   -0.5855 O   0  0  0  0  0  0  0  0  0  0  0  0
   -1.4840    3.8302   -0.4694 O   0  0  0  0  0  0  0  0  0  0  0  0
    2.4361    1.4512    0.8057 O   0  0  0  0  0  0  0  0  0  0  0  0
    4.6674    0.0088    0.5864 O   0  0  0  0  0  0  0  0  0  0  0  0
   -2.7606   -2.4510   -0.1182 N   0  0  2  0  0  0  0  0  0  0  0  0
   -1.4570   -1.8222    0.2191 C   0  0  2  0  0  0  0  0  0  0  0  0
   -1.4549   -0.3036    0.0124 C   0  0  0  0  0  0  0  0  0  0  0  0
   -0.3016   -2.4376   -0.6026 C   0  0  0  0  0  0  0  0  0  0  0  0
   -2.6718    0.4047   -0.0307 C   0  0  0  0  0  0  0  0  0  0  0  0
   -3.8513   -1.7406    0.5683 C   0  0  0  0  0  0  0  0  0  0  0  0
   -0.2185    0.3863   -0.0701 C   0  0  0  0  0  0  0  0  0  0  0  0
   -3.9855   -0.3246    0.0158 C   0  0  0  0  0  0  0  0  0  0  0  0
    1.0174   -1.7674   -0.2889 C   0  0  0  0  0  0  0  0  0  0  0  0
    1.0481   -0.3802   -0.0288 C   0  0  0  0  0  0  0  0  0  0  0  0
   -2.6643    1.7941   -0.1858 C   0  0  0  0  0  0  0  0  0  0  0  0
   -0.2515    1.7842   -0.2233 C   0  0  0  0  0  0  0  0  0  0  0  0
   -2.8059   -3.8693    0.2536 C   0  0  0  0  0  0  0  0  0  0  0  0
   -1.4597    2.4800   -0.2784 C   0  0  0  0  0  0  0  0  0  0  0  0
    2.2944    0.2031    0.2617 C   0  0  0  0  0  0  0  0  0  0  0  0
    2.2013   -2.5209   -0.2998 C   0  0  0  0  0  0  0  0  0  0  0  0
    3.4680   -0.5564    0.2662 C   0  0  0  0  0  0  0  0  0  0  0  0
    3.4224   -1.9158   -0.0201 C   0  0  0  0  0  0  0  0  0  0  0  0
   -1.4500    4.6488    0.6971 C   0  0  0  0  0  0  0  0  0  0  0  0
    5.4267    0.5642   -0.4846 C   0  0  0  0  0  0  0  0  0  0  0  0
   -1.2528   -1.9801    1.2896 H   0  0  0  0  0  0  0  0  0  0  0  0
   -0.4910   -2.3382   -1.6797 H   0  0  0  0  0  0  0  0  0  0  0  0
   -0.2060   -3.5057   -0.3792 H   0  0  0  0  0  0  0  0  0  0  0  0
   -3.6779   -1.7140    1.6529 H   0  0  0  0  0  0  0  0  0  0  0  0
   -4.8085   -2.2525    0.4076 H   0  0  0  0  0  0  0  0  0  0  0  0
   -4.6984    0.2299    0.6378 H   0  0  0  0  0  0  0  0  0  0  0  0
   -4.3918   -0.3638   -1.0030 H   0  0  0  0  0  0  0  0  0  0  0  0
   -3.6032    2.3397   -0.2464 H   0  0  0  0  0  0  0  0  0  0  0  0
   -2.5743   -4.0267    1.3130 H   0  0  0  0  0  0  0  0  0  0  0  0
   -2.1152   -4.4641   -0.3510 H   0  0  0  0  0  0  0  0  0  0  0  0
   -3.7999   -4.2879    0.0562 H   0  0  0  0  0  0  0  0  0  0  0  0
    2.1745   -3.5851   -0.5196 H   0  0  0  0  0  0  0  0  0  0  0  0
    4.3305   -2.5123   -0.0166 H   0  0  0  0  0  0  0  0  0  0  0  0
    0.5680    3.4584   -0.7262 H   0  0  0  0  0  0  0  0  0  0  0  0
    3.3718    1.6175    1.0111 H   0  0  0  0  0  0  0  0  0  0  0  0
   -2.3375    4.4727    1.3131 H   0  0  0  0  0  0  0  0  0  0  0  0
   -1.4455    5.6956    0.3815 H   0  0  0  0  0  0  0  0  0  0  0  0
   -0.5442    4.4553    1.2804 H   0  0  0  0  0  0  0  0  0  0  0  0
    4.8614    1.3520   -0.9927 H   0  0  0  0  0  0  0  0  0  0  0  0
    5.7072   -0.2163   -1.1989 H   0  0  0  0  0  0  0  0  0  0  0  0
    6.3383    1.0012   -0.0681 H   0  0  0  0  0  0  0  0  0  0  0  0
  1 16  1  0  0  0  0
  1 38  1  0  0  0  0
  2 18  1  0  0  0  0
  2 23  1  0  0  0  0
  3 19  1  0  0  0  0
  3 39  1  0  0  0  0
  4 21  1  0  0  0  0
  4 24  1  0  0  0  0
  5  6  1  0  0  0  0
  5 10  1  0  0  0  0
  5 17  1  0  0  0  0
  6  7  1  0  0  0  0
  6  8  1  0  0  0  0
  6 25  1  0  0  0  0
  7  9  1  0  0  0  0
  7 11  2  0  0  0  0
  8 13  1  0  0  0  0
  8 26  1  0  0  0  0
  8 27  1  0  0  0  0
  9 12  1  0  0  0  0
  9 15  2  0  0  0  0
 10 12  1  0  0  0  0
 10 28  1  0  0  0  0
 10 29  1  0  0  0  0
 11 14  1  0  0  0  0
 11 16  1  0  0  0  0
 12 30  1  0  0  0  0
 12 31  1  0  0  0  0
 13 14  2  0  0  0  0
 13 20  1  0  0  0  0
 14 19  1  0  0  0  0
 15 18  1  0  0  0  0
 15 32  1  0  0  0  0
 16 18  2  0  0  0  0
 17 33  1  0  0  0  0
 17 34  1  0  0  0  0
 17 35  1  0  0  0  0
 19 21  2  0  0  0  0
 20 22  2  0  0  0  0
 20 36  1  0  0  0  0
 21 22  1  0  0  0  0
 22 37  1  0  0  0  0
 23 40  1  0  0  0  0
 23 41  1  0  0  0  0
 23 42  1  0  0  0  0
 24 43  1  0  0  0  0
 24 44  1  0  0  0  0
 24 45  1  0  0  0  0
M  END
> <PUBCHEM_COMPOUND_CID>
160500

> <PUBCHEM_CONFORMER_RMSD>
0.6

> <PUBCHEM_CONFORMER_DIVERSEORDER>
1
3
2

> <PUBCHEM_MMFF94_PARTIAL_CHARGES>
27
1 -0.53
10 0.27
12 0.14
13 -0.14
15 -0.15
16 0.08
17 0.27
18 0.08
19 0.08
2 -0.36
20 -0.15
21 0.08
22 -0.15
23 0.28
24 0.28
3 -0.53
32 0.15
36 0.15
37 0.15
38 0.45
39 0.45
4 -0.36
5 -0.81
6 0.41
7 -0.14
8 0.14
9 -0.14

> <PUBCHEM_EFFECTIVE_ROTOR_COUNT>
2.8

> <PUBCHEM_PHARMACOPHORE_FEATURES>
9
1 1 donor
1 2 acceptor
1 3 donor
1 4 acceptor
1 5 cation
6 13 14 19 20 21 22 rings
6 5 6 7 9 10 12 rings
6 6 7 8 11 13 14 rings
6 7 9 11 15 16 18 rings

> <PUBCHEM_HEAVY_ATOM_COUNT>
24

> <PUBCHEM_ATOM_DEF_STEREO_COUNT>
1

> <PUBCHEM_ATOM_UDEF_STEREO_COUNT>
0

> <PUBCHEM_BOND_DEF_STEREO_COUNT>
0

> <PUBCHEM_BOND_UDEF_STEREO_COUNT>
0

> <PUBCHEM_ISOTOPIC_ATOM_COUNT>
0

> <PUBCHEM_COMPONENT_COUNT>
1

> <PUBCHEM_CACTVS_TAUTO_COUNT>
43

> <PUBCHEM_CONFORMER_ID>
000272F400000001

> <PUBCHEM_MMFF94_ENERGY>
103.184

> <PUBCHEM_FEATURE_SELFOVERLAP>
45.792

> <PUBCHEM_SHAPE_FINGERPRINT>
10319926 262 18195505049395754594
10411042 1 18194120956432958367
10616163 171 18410576184575808814
10670039 82 18335152986104609828
10906281 52 18339936930741881925
10967382 1 17905889536767132895
1100329 8 18337112388417574923
11578080 2 17097182087371318540
12011746 2 18412259545119689615
12107183 9 17613425654950624962
12173636 292 18121779430854704317
12293681 4 18114470066532148618
12403259 226 18342451530476508490
12403260 363 17978212877490389671
12553582 1 18337669836032957023
12788726 201 18333446538829592498
13140716 1 18339079418413363809
138480 1 15816499122676056717
14081887 123 18339912753901403018
14178342 30 18264194843206076186
14223421 5 18412261705630696466
14363568 33 17615708644025158696
14787075 74 17968943140139017770
14790565 3 17399805285474402421
14955137 171 18049177840569836931
15042514 8 18409167714306952435
15196674 1 18338797810482804670
16087824 20 18410292498518972973
16945 1 18410016515776870167
19591789 44 18122629628395000572
20510252 161 18269835315917721265
20905425 154 18341052921674129318
21267235 1 18337962310305218979
21796203 349 17685252685804706139
2334 1 18050286165501938255
23557571 272 18342466919766316942
23558518 356 18189906305040425418
23559900 14 18339634659022191288
23845131 108 17400090678083643273
2748010 2 18268420407529570847
283562 15 18267578006146525537
3091708 16 9277395991219990097
335352 9 18337390552185873983
3380486 145 18337403720355124003
34934 24 18408599262574583179
350125 39 18411984646091629112
5104073 3 18339358548765433306
7364860 26 17833551571775243761
81228 2 18188217502657059745
9709674 26 18269554931963242358

> <PUBCHEM_SHAPE_MULTIPOLES>
465.45
7.43
4.88
0.73
7.32
3.03
0.02
-1.8
0.5
-4.39
0.19
0.07
0.1
0.31

> <PUBCHEM_SHAPE_SELFOVERLAP>
1030.335

> <PUBCHEM_SHAPE_VOLUME>
249.1

> <PUBCHEM_COORDINATE_TYPE>
2
5
10

$$$$
