9938773
  -OEChem-09062013473D

 85 91  0     1  0  0  0  0  0999 V2000
    1.1716    0.3637   -0.3480 O   0  0  0  0  0  0  0  0  0  0  0  0
    1.2484    1.5298    2.2630 O   0  0  0  0  0  0  0  0  0  0  0  0
    2.2705    3.0504   -0.4570 O   0  0  0  0  0  0  0  0  0  0  0  0
    3.5529    1.4610    3.7005 O   0  0  0  0  0  0  0  0  0  0  0  0
   -2.2160   -3.3808    0.8731 O   0  0  0  0  0  0  0  0  0  0  0  0
   -4.4796   -4.1871   -0.4667 O   0  0  0  0  0  0  0  0  0  0  0  0
    4.7316   -0.8798   -2.1034 N   0  0  1  0  0  0  0  0  0  0  0  0
   -4.1826    3.4453   -0.3559 N   0  0  1  0  0  0  0  0  0  0  0  0
    3.4322   -1.0495   -1.4093 C   0  0  2  0  0  0  0  0  0  0  0  0
   -3.3880    2.1823   -0.4053 C   0  0  1  0  0  0  0  0  0  0  0  0
    3.4600   -0.2723   -0.0946 C   0  0  0  0  0  0  0  0  0  0  0  0
   -1.8664    2.4071   -0.4334 C   0  0  0  0  0  0  0  0  0  0  0  0
    5.8458   -1.4064   -1.3103 C   0  0  0  0  0  0  0  0  0  0  0  0
    4.6605   -0.2214    0.6408 C   0  0  0  0  0  0  0  0  0  0  0  0
    5.9620   -0.7002    0.0457 C   0  0  0  0  0  0  0  0  0  0  0  0
   -3.5756    4.5215   -1.1478 C   0  0  0  0  0  0  0  0  0  0  0  0
   -1.3211    3.7013   -0.4951 C   0  0  0  0  0  0  0  0  0  0  0  0
    3.0406   -2.5397   -1.1557 C   0  0  0  0  0  0  0  0  0  0  0  0
   -2.2261    4.8971   -0.5498 C   0  0  0  0  0  0  0  0  0  0  0  0
   -3.7907    1.3087    0.8290 C   0  0  0  0  0  0  0  0  0  0  0  0
    2.3146    0.3617    0.4254 C   0  0  0  0  0  0  0  0  0  0  0  0
   -0.9785    1.3199   -0.4422 C   0  0  0  0  0  0  0  0  0  0  0  0
    0.4058    1.5079   -0.3946 C   0  0  0  0  0  0  0  0  0  0  0  0
    4.7406   -1.4232   -3.4581 C   0  0  0  0  0  0  0  0  0  0  0  0
    4.6741    0.3679    1.9131 C   0  0  0  0  0  0  0  0  0  0  0  0
    0.0706    3.8874   -0.4944 C   0  0  0  0  0  0  0  0  0  0  0  0
   -5.5596    3.2334   -0.8228 C   0  0  0  0  0  0  0  0  0  0  0  0
    1.6378   -2.7624   -0.6354 C   0  0  0  0  0  0  0  0  0  0  0  0
    2.3324    0.9088    1.7147 C   0  0  0  0  0  0  0  0  0  0  0  0
   -3.9783   -0.1599    0.5097 C   0  0  0  0  0  0  0  0  0  0  0  0
    0.9343    2.7953   -0.4489 C   0  0  0  0  0  0  0  0  0  0  0  0
    3.5108    0.9084    2.4553 C   0  0  0  0  0  0  0  0  0  0  0  0
   -3.0369   -1.1093    0.9257 C   0  0  0  0  0  0  0  0  0  0  0  0
    1.4218   -3.0862    0.7128 C   0  0  0  0  0  0  0  0  0  0  0  0
    0.5359   -2.6573   -1.4939 C   0  0  0  0  0  0  0  0  0  0  0  0
   -5.0957   -0.5934   -0.2197 C   0  0  0  0  0  0  0  0  0  0  0  0
   -3.1759   -2.4485    0.5474 C   0  0  0  0  0  0  0  0  0  0  0  0
   -0.9622   -3.1552    0.3400 C   0  0  0  0  0  0  0  0  0  0  0  0
    0.1286   -3.2879    1.1982 C   0  0  0  0  0  0  0  0  0  0  0  0
   -0.7591   -2.8591   -1.0121 C   0  0  0  0  0  0  0  0  0  0  0  0
   -5.2622   -1.9440   -0.5367 C   0  0  0  0  0  0  0  0  0  0  0  0
   -4.3015   -2.8765   -0.1537 C   0  0  0  0  0  0  0  0  0  0  0  0
    0.3415    0.7138    2.9982 C   0  0  0  0  0  0  0  0  0  0  0  0
    2.9112    3.1174   -1.7293 C   0  0  0  0  0  0  0  0  0  0  0  0
   -5.1801   -4.9899    0.4812 C   0  0  0  0  0  0  0  0  0  0  0  0
    2.6750   -0.5854   -2.0545 H   0  0  0  0  0  0  0  0  0  0  0  0
   -3.6227    1.6660   -1.3472 H   0  0  0  0  0  0  0  0  0  0  0  0
    6.7945   -1.2646   -1.8443 H   0  0  0  0  0  0  0  0  0  0  0  0
    5.7500   -2.4884   -1.1586 H   0  0  0  0  0  0  0  0  0  0  0  0
    6.6002    0.1843   -0.0835 H   0  0  0  0  0  0  0  0  0  0  0  0
    6.4655   -1.3692    0.7539 H   0  0  0  0  0  0  0  0  0  0  0  0
   -4.2111    5.4156   -1.1257 H   0  0  0  0  0  0  0  0  0  0  0  0
   -3.4667    4.2236   -2.1997 H   0  0  0  0  0  0  0  0  0  0  0  0
    3.7415   -3.0094   -0.4538 H   0  0  0  0  0  0  0  0  0  0  0  0
    3.1235   -3.1187   -2.0834 H   0  0  0  0  0  0  0  0  0  0  0  0
   -2.3505    5.2971    0.4642 H   0  0  0  0  0  0  0  0  0  0  0  0
   -1.7755    5.6836   -1.1668 H   0  0  0  0  0  0  0  0  0  0  0  0
   -4.7375    1.6441    1.2724 H   0  0  0  0  0  0  0  0  0  0  0  0
   -3.0615    1.4279    1.6424 H   0  0  0  0  0  0  0  0  0  0  0  0
   -1.3560    0.3057   -0.4806 H   0  0  0  0  0  0  0  0  0  0  0  0
    5.6476   -1.1046   -3.9842 H   0  0  0  0  0  0  0  0  0  0  0  0
    3.8944   -1.0393   -4.0383 H   0  0  0  0  0  0  0  0  0  0  0  0
    4.7106   -2.5173   -3.4804 H   0  0  0  0  0  0  0  0  0  0  0  0
    5.6054    0.4062    2.4742 H   0  0  0  0  0  0  0  0  0  0  0  0
    0.4793    4.8952   -0.5328 H   0  0  0  0  0  0  0  0  0  0  0  0
   -6.0919    2.5056   -0.2045 H   0  0  0  0  0  0  0  0  0  0  0  0
   -5.5925    2.8913   -1.8637 H   0  0  0  0  0  0  0  0  0  0  0  0
   -6.1353    4.1636   -0.7510 H   0  0  0  0  0  0  0  0  0  0  0  0
   -2.1757   -0.7998    1.5115 H   0  0  0  0  0  0  0  0  0  0  0  0
    2.2619   -3.1793    1.3967 H   0  0  0  0  0  0  0  0  0  0  0  0
    0.6806   -2.4183   -2.5445 H   0  0  0  0  0  0  0  0  0  0  0  0
   -5.8489    0.1187   -0.5457 H   0  0  0  0  0  0  0  0  0  0  0  0
   -0.0196   -3.5360    2.2456 H   0  0  0  0  0  0  0  0  0  0  0  0
   -1.5937   -2.7844   -1.7034 H   0  0  0  0  0  0  0  0  0  0  0  0
   -6.1420   -2.2579   -1.0922 H   0  0  0  0  0  0  0  0  0  0  0  0
    4.4528    1.3717    4.0583 H   0  0  0  0  0  0  0  0  0  0  0  0
    0.0508   -0.1700    2.4223 H   0  0  0  0  0  0  0  0  0  0  0  0
   -0.5549    1.3024    3.2120 H   0  0  0  0  0  0  0  0  0  0  0  0
    0.7943    0.4066    3.9459 H   0  0  0  0  0  0  0  0  0  0  0  0
    2.5571    3.9903   -2.2865 H   0  0  0  0  0  0  0  0  0  0  0  0
    2.7293    2.2054   -2.3069 H   0  0  0  0  0  0  0  0  0  0  0  0
    3.9875    3.2184   -1.5658 H   0  0  0  0  0  0  0  0  0  0  0  0
   -5.2315   -6.0111    0.0937 H   0  0  0  0  0  0  0  0  0  0  0  0
   -6.1997   -4.6168    0.6208 H   0  0  0  0  0  0  0  0  0  0  0  0
   -4.6510   -5.0055    1.4392 H   0  0  0  0  0  0  0  0  0  0  0  0
  1 21  1  0  0  0  0
  1 23  1  0  0  0  0
  2 29  1  0  0  0  0
  2 43  1  0  0  0  0
  3 31  1  0  0  0  0
  3 44  1  0  0  0  0
  4 32  1  0  0  0  0
  4 76  1  0  0  0  0
  5 37  1  0  0  0  0
  5 38  1  0  0  0  0
  6 42  1  0  0  0  0
  6 45  1  0  0  0  0
  7  9  1  0  0  0  0
  7 13  1  0  0  0  0
  7 24  1  0  0  0  0
  8 10  1  0  0  0  0
  8 16  1  0  0  0  0
  8 27  1  0  0  0  0
  9 11  1  0  0  0  0
  9 18  1  0  0  0  0
  9 46  1  0  0  0  0
 10 12  1  0  0  0  0
 10 20  1  0  0  0  0
 10 47  1  0  0  0  0
 11 14  1  0  0  0  0
 11 21  2  0  0  0  0
 12 17  1  0  0  0  0
 12 22  2  0  0  0  0
 13 15  1  0  0  0  0
 13 48  1  0  0  0  0
 13 49  1  0  0  0  0
 14 15  1  0  0  0  0
 14 25  2  0  0  0  0
 15 50  1  0  0  0  0
 15 51  1  0  0  0  0
 16 19  1  0  0  0  0
 16 52  1  0  0  0  0
 16 53  1  0  0  0  0
 17 19  1  0  0  0  0
 17 26  2  0  0  0  0
 18 28  1  0  0  0  0
 18 54  1  0  0  0  0
 18 55  1  0  0  0  0
 19 56  1  0  0  0  0
 19 57  1  0  0  0  0
 20 30  1  0  0  0  0
 20 58  1  0  0  0  0
 20 59  1  0  0  0  0
 21 29  1  0  0  0  0
 22 23  1  0  0  0  0
 22 60  1  0  0  0  0
 23 31  2  0  0  0  0
 24 61  1  0  0  0  0
 24 62  1  0  0  0  0
 24 63  1  0  0  0  0
 25 32  1  0  0  0  0
 25 64  1  0  0  0  0
 26 31  1  0  0  0  0
 26 65  1  0  0  0  0
 27 66  1  0  0  0  0
 27 67  1  0  0  0  0
 27 68  1  0  0  0  0
 28 34  2  0  0  0  0
 28 35  1  0  0  0  0
 29 32  2  0  0  0  0
 30 33  2  0  0  0  0
 30 36  1  0  0  0  0
 33 37  1  0  0  0  0
 33 69  1  0  0  0  0
 34 39  1  0  0  0  0
 34 70  1  0  0  0  0
 35 40  2  0  0  0  0
 35 71  1  0  0  0  0
 36 41  2  0  0  0  0
 36 72  1  0  0  0  0
 37 42  2  0  0  0  0
 38 39  2  0  0  0  0
 38 40  1  0  0  0  0
 39 73  1  0  0  0  0
 40 74  1  0  0  0  0
 41 42  1  0  0  0  0
 41 75  1  0  0  0  0
 43 77  1  0  0  0  0
 43 78  1  0  0  0  0
 43 79  1  0  0  0  0
 44 80  1  0  0  0  0
 44 81  1  0  0  0  0
 44 82  1  0  0  0  0
 45 83  1  0  0  0  0
 45 84  1  0  0  0  0
 45 85  1  0  0  0  0
M  END
> <PUBCHEM_COMPOUND_CID>
9938773

> <PUBCHEM_CONFORMER_RMSD>
1

> <PUBCHEM_CONFORMER_DIVERSEORDER>
1
6
5
4
2
3

> <PUBCHEM_MMFF94_PARTIAL_CHARGES>
56
1 -0.17
10 0.41
11 -0.14
12 -0.14
13 0.27
14 -0.14
15 0.14
16 0.27
17 -0.14
18 0.14
19 0.14
2 -0.36
20 0.14
21 0.08
22 -0.15
23 0.08
24 0.27
25 -0.15
26 -0.15
27 0.27
28 -0.14
29 0.08
3 -0.36
30 -0.14
31 0.08
32 0.08
33 -0.15
34 -0.15
35 -0.15
36 -0.15
37 0.08
38 0.08
39 -0.15
4 -0.53
40 -0.15
41 -0.15
42 0.08
43 0.28
44 0.28
45 0.28
5 -0.17
6 -0.36
60 0.15
64 0.15
65 0.15
69 0.15
7 -0.81
70 0.15
71 0.15
72 0.15
73 0.15
74 0.15
75 0.15
76 0.45
8 -0.81
9 0.41

> <PUBCHEM_EFFECTIVE_ROTOR_COUNT>
5

> <PUBCHEM_PHARMACOPHORE_FEATURES>
14
1 1 acceptor
1 2 acceptor
1 3 acceptor
1 4 donor
1 5 acceptor
1 6 acceptor
1 7 cation
1 8 cation
6 11 14 21 25 29 32 rings
6 12 17 22 23 26 31 rings
6 28 34 35 38 39 40 rings
6 30 33 36 37 41 42 rings
6 7 9 11 13 14 15 rings
6 8 10 12 16 17 19 rings

> <PUBCHEM_HEAVY_ATOM_COUNT>
45

> <PUBCHEM_ATOM_DEF_STEREO_COUNT>
2

> <PUBCHEM_ATOM_UDEF_STEREO_COUNT>
0

> <PUBCHEM_BOND_DEF_STEREO_COUNT>
0

> <PUBCHEM_BOND_UDEF_STEREO_COUNT>
0

> <PUBCHEM_ISOTOPIC_ATOM_COUNT>
0

> <PUBCHEM_COMPONENT_COUNT>
1

> <PUBCHEM_CACTVS_TAUTO_COUNT>
9

> <PUBCHEM_CONFORMER_ID>
0097A75500000001

> <PUBCHEM_MMFF94_ENERGY>
191.7863

> <PUBCHEM_FEATURE_SELFOVERLAP>
71.102

> <PUBCHEM_SHAPE_FINGERPRINT>
10864689 126 17978517437879036340
10940486 97 18188216407187991380
10974685 15 18409167709822107442
11513181 2 17911244136851254359
12156800 1 18261100855850212730
12788726 201 18188503474781060102
13402501 40 18343023263511650823
13617811 41 18044095657672922965
13782708 43 18202842154369015358
14040221 97 18130503159218166872
14117953 113 18410851075984762119
14725015 67 18337664325816945355
14932702 115 18125734395902369292
15001296 14 18262243351352671997
15200665 1 18337118856707505385
15320467 1 18336829702218044759
15400415 2 17760650265450840052
15406563 190 17679599830682253617
15968369 153 18128253587104839182
15968369 26 17764846032466484676
16067690 210 18041001794759184864
16112460 7 18268168589666335241
20764821 26 18336278932575493271
25223398 141 18335985255971214764
3383291 50 18337951195974231937
508706 21 18411979152801992767
563151 74 16342846802656319274
613672 6 18194947751313131095
653340 110 18338222804555923899
86090 222 18127680535541681848

> <PUBCHEM_SHAPE_MULTIPOLES>
880.9
11.95
6.9
2.28
0.29
0.59
0.98
-3.46
-2.45
-10.22
-1.64
4.04
0.35
2.72

> <PUBCHEM_SHAPE_SELFOVERLAP>
1942.763

> <PUBCHEM_SHAPE_VOLUME>
473.4

> <PUBCHEM_COORDINATE_TYPE>
2
5
10

$$$$
