161379
  -OEChem-09062014243D

 41 44  0     0  0  0  0  0  0999 V2000
   -2.1134    2.5014   -0.2527 O   0  0  0  0  0  0  0  0  0  0  0  0
   -0.1576    3.8633   -0.0046 O   0  0  0  0  0  0  0  0  0  0  0  0
    4.9055   -0.7743   -0.2377 N   0  0  0  0  0  0  0  0  0  0  0  0
    0.3219   -0.2085    0.3587 C   0  0  0  0  0  0  0  0  0  0  0  0
    1.4530    0.6293    0.4984 C   0  0  0  0  0  0  0  0  0  0  0  0
   -0.9712    0.3281    0.0965 C   0  0  0  0  0  0  0  0  0  0  0  0
    2.8224    0.0823    0.7742 C   0  0  0  0  0  0  0  0  0  0  0  0
   -1.0078    1.7356   -0.0067 C   0  0  0  0  0  0  0  0  0  0  0  0
   -2.0953   -0.5798   -0.0361 C   0  0  0  0  0  0  0  0  0  0  0  0
    0.1109    2.5358    0.1335 C   0  0  0  0  0  0  0  0  0  0  0  0
    1.3544    2.0122    0.3864 C   0  0  0  0  0  0  0  0  0  0  0  0
    3.5851   -0.2209   -0.5194 C   0  0  0  0  0  0  0  0  0  0  0  0
   -1.8710   -1.9760    0.0992 C   0  0  0  0  0  0  0  0  0  0  0  0
    0.4912   -1.5885    0.4827 C   0  0  0  0  0  0  0  0  0  0  0  0
   -0.5862   -2.4575    0.3553 C   0  0  0  0  0  0  0  0  0  0  0  0
   -3.4339   -0.1869   -0.2955 C   0  0  0  0  0  0  0  0  0  0  0  0
   -1.5716    3.8327   -0.2501 C   0  0  0  0  0  0  0  0  0  0  0  0
   -2.9294   -2.8932   -0.0205 C   0  0  0  0  0  0  0  0  0  0  0  0
   -4.4789   -1.1089   -0.4133 C   0  0  0  0  0  0  0  0  0  0  0  0
   -4.2265   -2.4634   -0.2753 C   0  0  0  0  0  0  0  0  0  0  0  0
    5.6029   -1.1004   -1.4826 C   0  0  0  0  0  0  0  0  0  0  0  0
    4.7955   -1.9625    0.6096 C   0  0  0  0  0  0  0  0  0  0  0  0
    3.3944    0.8284    1.3462 H   0  0  0  0  0  0  0  0  0  0  0  0
    2.7465   -0.7561    1.4697 H   0  0  0  0  0  0  0  0  0  0  0  0
    2.2174    2.6614    0.4892 H   0  0  0  0  0  0  0  0  0  0  0  0
    3.6956    0.7076   -1.0949 H   0  0  0  0  0  0  0  0  0  0  0  0
    3.0011   -0.9099   -1.1448 H   0  0  0  0  0  0  0  0  0  0  0  0
    1.4523   -2.0604    0.6591 H   0  0  0  0  0  0  0  0  0  0  0  0
   -0.4035   -3.5262    0.4557 H   0  0  0  0  0  0  0  0  0  0  0  0
   -3.7055    0.8565   -0.4148 H   0  0  0  0  0  0  0  0  0  0  0  0
   -2.0778    4.4170    0.5267 H   0  0  0  0  0  0  0  0  0  0  0  0
   -1.7714    4.2959   -1.2231 H   0  0  0  0  0  0  0  0  0  0  0  0
   -2.7501   -3.9619    0.0847 H   0  0  0  0  0  0  0  0  0  0  0  0
   -5.4881   -0.7603   -0.6126 H   0  0  0  0  0  0  0  0  0  0  0  0
   -5.0336   -3.1837   -0.3653 H   0  0  0  0  0  0  0  0  0  0  0  0
    5.7058   -0.2086   -2.1110 H   0  0  0  0  0  0  0  0  0  0  0  0
    5.0802   -1.8715   -2.0604 H   0  0  0  0  0  0  0  0  0  0  0  0
    6.6188   -1.4539   -1.2743 H   0  0  0  0  0  0  0  0  0  0  0  0
    5.7608   -2.4812    0.6647 H   0  0  0  0  0  0  0  0  0  0  0  0
    4.0581   -2.6815    0.2342 H   0  0  0  0  0  0  0  0  0  0  0  0
    4.5629   -1.7049    1.6472 H   0  0  0  0  0  0  0  0  0  0  0  0
  1  8  1  0  0  0  0
  1 17  1  0  0  0  0
  2 10  1  0  0  0  0
  2 17  1  0  0  0  0
  3 12  1  0  0  0  0
  3 21  1  0  0  0  0
  3 22  1  0  0  0  0
  4  5  1  0  0  0  0
  4  6  2  0  0  0  0
  4 14  1  0  0  0  0
  5  7  1  0  0  0  0
  5 11  2  0  0  0  0
  6  8  1  0  0  0  0
  6  9  1  0  0  0  0
  7 12  1  0  0  0  0
  7 23  1  0  0  0  0
  7 24  1  0  0  0  0
  8 10  2  0  0  0  0
  9 13  1  0  0  0  0
  9 16  2  0  0  0  0
 10 11  1  0  0  0  0
 11 25  1  0  0  0  0
 12 26  1  0  0  0  0
 12 27  1  0  0  0  0
 13 15  1  0  0  0  0
 13 18  2  0  0  0  0
 14 15  2  0  0  0  0
 14 28  1  0  0  0  0
 15 29  1  0  0  0  0
 16 19  1  0  0  0  0
 16 30  1  0  0  0  0
 17 31  1  0  0  0  0
 17 32  1  0  0  0  0
 18 20  1  0  0  0  0
 18 33  1  0  0  0  0
 19 20  2  0  0  0  0
 19 34  1  0  0  0  0
 20 35  1  0  0  0  0
 21 36  1  0  0  0  0
 21 37  1  0  0  0  0
 21 38  1  0  0  0  0
 22 39  1  0  0  0  0
 22 40  1  0  0  0  0
 22 41  1  0  0  0  0
M  END
> <PUBCHEM_COMPOUND_CID>
161379

> <PUBCHEM_CONFORMER_RMSD>
0.6

> <PUBCHEM_CONFORMER_DIVERSEORDER>
1
7
6
4
2
3
5

> <PUBCHEM_MMFF94_PARTIAL_CHARGES>
25
1 -0.36
10 0.08
11 -0.15
12 0.27
14 -0.15
15 -0.15
16 -0.15
17 0.56
18 -0.15
19 -0.15
2 -0.36
20 -0.15
21 0.27
22 0.27
25 0.15
28 0.15
29 0.15
3 -0.81
30 0.15
33 0.15
34 0.15
35 0.15
5 -0.14
7 0.14
8 0.08

> <PUBCHEM_EFFECTIVE_ROTOR_COUNT>
3.6

> <PUBCHEM_PHARMACOPHORE_FEATURES>
7
1 1 acceptor
1 2 acceptor
1 3 cation
5 1 2 8 10 17 rings
6 4 5 6 8 10 11 rings
6 4 6 9 13 14 15 rings
6 9 13 16 18 19 20 rings

> <PUBCHEM_HEAVY_ATOM_COUNT>
22

> <PUBCHEM_ATOM_DEF_STEREO_COUNT>
0

> <PUBCHEM_ATOM_UDEF_STEREO_COUNT>
0

> <PUBCHEM_BOND_DEF_STEREO_COUNT>
0

> <PUBCHEM_BOND_UDEF_STEREO_COUNT>
0

> <PUBCHEM_ISOTOPIC_ATOM_COUNT>
0

> <PUBCHEM_COMPONENT_COUNT>
1

> <PUBCHEM_CACTVS_TAUTO_COUNT>
1

> <PUBCHEM_CONFORMER_ID>
0002766300000001

> <PUBCHEM_MMFF94_ENERGY>
74.8011

> <PUBCHEM_FEATURE_SELFOVERLAP>
35.724

> <PUBCHEM_SHAPE_FINGERPRINT>
10319926 262 18124566749741988426
10369192 42 17127865162631693888
10411042 1 18338232773106985163
104564 63 18337668616240782329
10693767 8 18128516327951955727
10967382 1 17760359286211896353
1100329 8 18412266104031252817
11578080 2 14257190836084156721
11680986 33 17976821213871278163
116883 192 18411981394727227564
12403259 226 18342730832373730400
12553582 1 18408876352352475859
12788726 201 18334295336390275250
12954195 1 18269278958902532014
13140716 1 18338515347932407905
13583140 156 14548461271713337362
138480 1 15456772981184582681
14022347 108 18188760768622240290
14251757 5 18334019401705072198
14508225 48 18410570712571456108
14790565 3 17692537710480095129
14866123 147 18268995289266014155
14955137 171 18263380225338669467
15042514 8 18338515222956310928
15081414 286 18194404630611896113
15420108 30 16975029880452612560
15442244 35 18195244640779507609
15927050 60 17838053698534910501
16087824 20 18265896866174979797
16752209 62 18335977567710885778
16945 1 18337377293141523273
17492 89 17836363023040090079
1813 80 18271259325009210310
19591789 44 18410008849328714667
20871999 31 18409736132154330444
20905425 154 18269553832351446150
21267235 1 18338803420248533771
21279426 13 18337099138464546613
21285901 2 18130798827895927886
21478907 32 18410571773264607258
221490 88 17903075873806418827
22182313 1 18194940015312373632
2334 1 17976250563194365297
23402539 116 18342171159253775375
23536364 44 18265310864545752821
23557571 272 18129953265110224278
23558518 356 17973445403863111706
23559900 14 18268704077297737008
2748010 2 18193821872448419697
3004659 81 18187364350955054846
3091708 16 9567030447772928064
335352 9 18411134749794830655
352729 6 17689982450078314131
58779409 8 18121216485280873508
59755656 215 18339358552981330799
59755656 520 17626681400999023232
68521 5 18410294696592837934
7164475 11 18336547123630073614
7237137 82 18260833670266690892
7364860 26 17690278630891450137
9709674 26 17904760338536942819

> <PUBCHEM_SHAPE_MULTIPOLES>
436.03
8.72
4.27
0.83
8.93
3.94
-0.12
-8.08
-2.54
-2.62
-0.06
0.75
-0.19
0.26

> <PUBCHEM_SHAPE_SELFOVERLAP>
971.546

> <PUBCHEM_SHAPE_VOLUME>
233.9

> <PUBCHEM_COORDINATE_TYPE>
2
5
10

$$$$
