440595
  -OEChem-09062013333D

 43 45  0     1  0  0  0  0  0999 V2000
    5.2361   -0.7861    0.4456 O   0  0  0  0  0  0  0  0  0  0  0  0
    3.4340   -2.7956   -0.2077 O   0  0  0  0  0  0  0  0  0  0  0  0
   -6.4835   -0.9568   -0.4843 O   0  0  0  0  0  0  0  0  0  0  0  0
   -0.5921    1.8521   -0.4647 N   0  0  1  0  0  0  0  0  0  0  0  0
   -0.2778    0.4193   -0.2684 C   0  0  1  0  0  0  0  0  0  0  0  0
    1.2003    0.1134   -0.0891 C   0  0  0  0  0  0  0  0  0  0  0  0
    0.1503    2.7078    0.4690 C   0  0  0  0  0  0  0  0  0  0  0  0
    1.6699    2.5605    0.3632 C   0  0  0  0  0  0  0  0  0  0  0  0
    2.1147    1.1262    0.2514 C   0  0  0  0  0  0  0  0  0  0  0  0
   -1.0850   -0.1179    0.9243 C   0  0  0  0  0  0  0  0  0  0  0  0
   -0.4116    2.2683   -1.8558 C   0  0  0  0  0  0  0  0  0  0  0  0
    1.6632   -1.2037   -0.2395 C   0  0  0  0  0  0  0  0  0  0  0  0
    3.4697    0.8095    0.4242 C   0  0  0  0  0  0  0  0  0  0  0  0
   -2.5192   -0.3407    0.5497 C   0  0  0  0  0  0  0  0  0  0  0  0
    3.0118   -1.5094   -0.0570 C   0  0  0  0  0  0  0  0  0  0  0  0
    3.9143   -0.5033    0.2751 C   0  0  0  0  0  0  0  0  0  0  0  0
   -3.4419    0.6878    0.7101 C   0  0  0  0  0  0  0  0  0  0  0  0
   -2.9163   -1.5748    0.0454 C   0  0  0  0  0  0  0  0  0  0  0  0
   -4.7766    0.4798    0.3622 C   0  0  0  0  0  0  0  0  0  0  0  0
   -4.2511   -1.7826   -0.3027 C   0  0  0  0  0  0  0  0  0  0  0  0
   -5.1812   -0.7553   -0.1441 C   0  0  0  0  0  0  0  0  0  0  0  0
    6.0720   -0.6986   -0.7070 C   0  0  0  0  0  0  0  0  0  0  0  0
   -0.5998   -0.1246   -1.1690 H   0  0  0  0  0  0  0  0  0  0  0  0
   -0.1601    2.4837    1.4966 H   0  0  0  0  0  0  0  0  0  0  0  0
   -0.1265    3.7592    0.3191 H   0  0  0  0  0  0  0  0  0  0  0  0
    2.1293    3.0215    1.2460 H   0  0  0  0  0  0  0  0  0  0  0  0
    2.0343    3.1028   -0.5181 H   0  0  0  0  0  0  0  0  0  0  0  0
   -1.0196    0.5280    1.8085 H   0  0  0  0  0  0  0  0  0  0  0  0
   -0.6765   -1.0773    1.2718 H   0  0  0  0  0  0  0  0  0  0  0  0
   -0.6732    3.3253   -1.9782 H   0  0  0  0  0  0  0  0  0  0  0  0
   -1.0880    1.7064   -2.5098 H   0  0  0  0  0  0  0  0  0  0  0  0
    0.6104    2.1225   -2.2207 H   0  0  0  0  0  0  0  0  0  0  0  0
    0.9599   -1.9919   -0.5003 H   0  0  0  0  0  0  0  0  0  0  0  0
    4.1816    1.5940    0.6717 H   0  0  0  0  0  0  0  0  0  0  0  0
   -3.1413    1.6530    1.1083 H   0  0  0  0  0  0  0  0  0  0  0  0
   -2.2004   -2.3817   -0.0849 H   0  0  0  0  0  0  0  0  0  0  0  0
   -5.4915    1.2880    0.4914 H   0  0  0  0  0  0  0  0  0  0  0  0
   -4.5600   -2.7465   -0.6975 H   0  0  0  0  0  0  0  0  0  0  0  0
    2.6724   -3.3546   -0.4384 H   0  0  0  0  0  0  0  0  0  0  0  0
    6.0749    0.3224   -1.1017 H   0  0  0  0  0  0  0  0  0  0  0  0
    5.7388   -1.3993   -1.4792 H   0  0  0  0  0  0  0  0  0  0  0  0
    7.0913   -0.9624   -0.4118 H   0  0  0  0  0  0  0  0  0  0  0  0
   -6.9847   -0.1418   -0.3096 H   0  0  0  0  0  0  0  0  0  0  0  0
  1 16  1  0  0  0  0
  1 22  1  0  0  0  0
  2 15  1  0  0  0  0
  2 39  1  0  0  0  0
  3 21  1  0  0  0  0
  3 43  1  0  0  0  0
  4  5  1  0  0  0  0
  4  7  1  0  0  0  0
  4 11  1  0  0  0  0
  5  6  1  0  0  0  0
  5 10  1  0  0  0  0
  5 23  1  0  0  0  0
  6  9  1  0  0  0  0
  6 12  2  0  0  0  0
  7  8  1  0  0  0  0
  7 24  1  0  0  0  0
  7 25  1  0  0  0  0
  8  9  1  0  0  0  0
  8 26  1  0  0  0  0
  8 27  1  0  0  0  0
  9 13  2  0  0  0  0
 10 14  1  0  0  0  0
 10 28  1  0  0  0  0
 10 29  1  0  0  0  0
 11 30  1  0  0  0  0
 11 31  1  0  0  0  0
 11 32  1  0  0  0  0
 12 15  1  0  0  0  0
 12 33  1  0  0  0  0
 13 16  1  0  0  0  0
 13 34  1  0  0  0  0
 14 17  2  0  0  0  0
 14 18  1  0  0  0  0
 15 16  2  0  0  0  0
 17 19  1  0  0  0  0
 17 35  1  0  0  0  0
 18 20  2  0  0  0  0
 18 36  1  0  0  0  0
 19 21  2  0  0  0  0
 19 37  1  0  0  0  0
 20 21  1  0  0  0  0
 20 38  1  0  0  0  0
 22 40  1  0  0  0  0
 22 41  1  0  0  0  0
 22 42  1  0  0  0  0
M  END
> <PUBCHEM_COMPOUND_CID>
440595

> <PUBCHEM_CONFORMER_RMSD>
0.6

> <PUBCHEM_CONFORMER_DIVERSEORDER>
3
16
1
11
9
13
4
5
8
12
2
15
10
6
7
14

> <PUBCHEM_MMFF94_PARTIAL_CHARGES>
30
1 -0.36
10 0.14
11 0.27
12 -0.15
13 -0.15
14 -0.14
15 0.08
16 0.08
17 -0.15
18 -0.15
19 -0.15
2 -0.53
20 -0.15
21 0.08
22 0.28
3 -0.53
33 0.15
34 0.15
35 0.15
36 0.15
37 0.15
38 0.15
39 0.45
4 -0.81
43 0.45
5 0.41
6 -0.14
7 0.27
8 0.14
9 -0.14

> <PUBCHEM_EFFECTIVE_ROTOR_COUNT>
3.8

> <PUBCHEM_PHARMACOPHORE_FEATURES>
7
1 1 acceptor
1 2 donor
1 3 donor
1 4 cation
6 14 17 18 19 20 21 rings
6 4 5 6 7 8 9 rings
6 6 9 12 13 15 16 rings

> <PUBCHEM_HEAVY_ATOM_COUNT>
22

> <PUBCHEM_ATOM_DEF_STEREO_COUNT>
1

> <PUBCHEM_ATOM_UDEF_STEREO_COUNT>
0

> <PUBCHEM_BOND_DEF_STEREO_COUNT>
0

> <PUBCHEM_BOND_UDEF_STEREO_COUNT>
0

> <PUBCHEM_ISOTOPIC_ATOM_COUNT>
0

> <PUBCHEM_COMPONENT_COUNT>
1

> <PUBCHEM_CACTVS_TAUTO_COUNT>
6

> <PUBCHEM_CONFORMER_ID>
0006B91300000003

> <PUBCHEM_MMFF94_ENERGY>
73.2814

> <PUBCHEM_FEATURE_SELFOVERLAP>
35.542

> <PUBCHEM_SHAPE_FINGERPRINT>
10366900 7 18261401035673313194
10906281 52 18262821617401751906
116883 192 18259982660967382869
11963148 33 18410005534068974350
12011746 2 18410296917280931526
12107183 9 17696202404478685299
12236239 1 17632297890881526507
12516196 113 18344145895127411096
12553582 1 18340473517954237006
12596602 18 17060620018469967538
12617007 42 17313101999032904133
12788726 201 18188206486108306440
13134695 92 18340767156368228085
13140716 1 18267295625005321898
13533116 47 18271242850258201369
13544653 18 18336554836605061434
13583140 156 16199859566879994073
13685833 64 18408326605423811059
13862211 1 18410855443539428826
14347332 77 18118403943712707626
14787075 74 18334018289819816698
14790565 3 17688874559228767676
15183329 4 18336539444360118365
15196674 1 18412263977483591489
15352361 1 18411700967421863419
15442244 35 18341336621802517497
15848700 24 18334011696343572632
15848702 151 18411417315392475811
15927050 60 17695063693301712964
17349148 13 17704076213809501711
17357779 13 18187350039659632469
17492 89 18050286161529549355
17980427 23 16773525403860673217
1813 80 17822013103142445269
18222031 100 18342176674381842186
18681886 176 18060414759322398130
19141452 34 18411983546795889315
200 152 18131068233929769947
20028762 73 18060415850044125366
20374829 77 18260825994759075947
20645477 70 18262796397137576961
21250096 35 18413671305386398051
21267235 1 18412270553590471403
21285901 2 18040994020894869783
21421861 104 17824539665088881522
21641784 216 17895774902134432876
221490 88 18265058118384063211
23402539 116 18260545602077252426
23522609 53 18120969185702322012
23557571 272 18269844125285814556
23559900 14 18269268135579756129
2871803 45 18259985946923052954
2916195 48 11097862925341841582
3004659 81 18259703406625400800
335352 9 18411138018354769469
3421961 26 18340764931226749432
350125 39 18410856569105891676
4214541 1 18341895186736526993
46194498 28 17676765491615893589
465052 167 18272656774439639886
5104073 3 18200037373394700331
5283173 99 18042113276630107085
5486654 2 18408329899959314414
59755656 215 18339930325167174390
6443956 14 18409449223585450497
67856867 119 18129376167397724145
8863177 126 17825121539064218267
9709674 26 18119531183432887283
9971528 1 18188485895343085669
9981440 41 17328862613733761921

> <PUBCHEM_SHAPE_MULTIPOLES>
430.16
12.03
2.6
0.94
4.17
0.87
0.26
-7.27
0.67
-1.04
0.34
0.09
0.41
0.07

> <PUBCHEM_SHAPE_SELFOVERLAP>
926.145

> <PUBCHEM_SHAPE_VOLUME>
238.1

> <PUBCHEM_COORDINATE_TYPE>
2
5
10

$$$$
