10781192
  -OEChem-09062014263D

 42 45  0     1  0  0  0  0  0999 V2000
   -2.1840    2.5341   -0.2943 O   0  0  0  0  0  0  0  0  0  0  0  0
   -0.1683    3.8184   -0.1259 O   0  0  0  0  0  0  0  0  0  0  0  0
    3.5144    0.8098    1.3962 O   0  0  0  0  0  0  0  0  0  0  0  0
    4.7131   -0.9553   -0.4358 N   0  0  0  0  0  0  0  0  0  0  0  0
    1.3243    0.5295    0.3854 C   0  0  0  0  0  0  0  0  0  0  0  0
    0.1568   -0.2634    0.2919 C   0  0  0  0  0  0  0  0  0  0  0  0
   -1.1207    0.3215    0.0575 C   0  0  0  0  0  0  0  0  0  0  0  0
    2.6782   -0.0687    0.6316 C   0  0  1  0  0  0  0  0  0  0  0  0
   -1.1035    1.7276   -0.0678 C   0  0  0  0  0  0  0  0  0  0  0  0
   -2.2837   -0.5417   -0.0293 C   0  0  0  0  0  0  0  0  0  0  0  0
    3.4070   -0.3985   -0.6761 C   0  0  0  0  0  0  0  0  0  0  0  0
    0.0502    2.4833    0.0271 C   0  0  0  0  0  0  0  0  0  0  0  0
    1.2784    1.9134    0.2529 C   0  0  0  0  0  0  0  0  0  0  0  0
   -2.1121   -1.9437    0.1223 C   0  0  0  0  0  0  0  0  0  0  0  0
    0.2738   -1.6469    0.4338 C   0  0  0  0  0  0  0  0  0  0  0  0
   -0.8410   -2.4732    0.3507 C   0  0  0  0  0  0  0  0  0  0  0  0
   -3.6122   -0.0986   -0.2589 C   0  0  0  0  0  0  0  0  0  0  0  0
   -1.5888    3.8417   -0.3299 C   0  0  0  0  0  0  0  0  0  0  0  0
   -3.2092   -2.8190    0.0455 C   0  0  0  0  0  0  0  0  0  0  0  0
   -4.6963   -0.9791   -0.3331 C   0  0  0  0  0  0  0  0  0  0  0  0
    5.3813   -1.3117   -1.6961 C   0  0  0  0  0  0  0  0  0  0  0  0
    4.6371   -2.1390    0.4331 C   0  0  0  0  0  0  0  0  0  0  0  0
   -4.4946   -2.3406   -0.1809 C   0  0  0  0  0  0  0  0  0  0  0  0
    2.5660   -0.9307    1.2891 H   0  0  0  0  0  0  0  0  0  0  0  0
    3.5252    0.5270   -1.2559 H   0  0  0  0  0  0  0  0  0  0  0  0
    2.7911   -1.0753   -1.2839 H   0  0  0  0  0  0  0  0  0  0  0  0
    2.1624    2.5391    0.3067 H   0  0  0  0  0  0  0  0  0  0  0  0
    1.2171   -2.1610    0.5840 H   0  0  0  0  0  0  0  0  0  0  0  0
   -0.6987   -3.5469    0.4617 H   0  0  0  0  0  0  0  0  0  0  0  0
   -3.8449    0.9530   -0.3877 H   0  0  0  0  0  0  0  0  0  0  0  0
   -2.0479    4.4586    0.4511 H   0  0  0  0  0  0  0  0  0  0  0  0
   -1.7984    4.2972   -1.3045 H   0  0  0  0  0  0  0  0  0  0  0  0
   -3.0702   -3.8924    0.1626 H   0  0  0  0  0  0  0  0  0  0  0  0
    4.3929    0.4009    1.4712 H   0  0  0  0  0  0  0  0  0  0  0  0
   -5.6959   -0.5930   -0.5104 H   0  0  0  0  0  0  0  0  0  0  0  0
    5.4699   -0.4324   -2.3439 H   0  0  0  0  0  0  0  0  0  0  0  0
    4.8395   -2.0919   -2.2430 H   0  0  0  0  0  0  0  0  0  0  0  0
    6.4010   -1.6641   -1.5051 H   0  0  0  0  0  0  0  0  0  0  0  0
    4.4132   -1.8800    1.4719 H   0  0  0  0  0  0  0  0  0  0  0  0
    5.6118   -2.6405    0.4763 H   0  0  0  0  0  0  0  0  0  0  0  0
    3.9041   -2.8708    0.0742 H   0  0  0  0  0  0  0  0  0  0  0  0
   -5.3322   -3.0288   -0.2377 H   0  0  0  0  0  0  0  0  0  0  0  0
  1  9  1  0  0  0  0
  1 18  1  0  0  0  0
  2 12  1  0  0  0  0
  2 18  1  0  0  0  0
  3  8  1  0  0  0  0
  3 34  1  0  0  0  0
  4 11  1  0  0  0  0
  4 21  1  0  0  0  0
  4 22  1  0  0  0  0
  5  6  1  0  0  0  0
  5  8  1  0  0  0  0
  5 13  2  0  0  0  0
  6  7  2  0  0  0  0
  6 15  1  0  0  0  0
  7  9  1  0  0  0  0
  7 10  1  0  0  0  0
  8 11  1  0  0  0  0
  8 24  1  0  0  0  0
  9 12  2  0  0  0  0
 10 14  1  0  0  0  0
 10 17  2  0  0  0  0
 11 25  1  0  0  0  0
 11 26  1  0  0  0  0
 12 13  1  0  0  0  0
 13 27  1  0  0  0  0
 14 16  1  0  0  0  0
 14 19  2  0  0  0  0
 15 16  2  0  0  0  0
 15 28  1  0  0  0  0
 16 29  1  0  0  0  0
 17 20  1  0  0  0  0
 17 30  1  0  0  0  0
 18 31  1  0  0  0  0
 18 32  1  0  0  0  0
 19 23  1  0  0  0  0
 19 33  1  0  0  0  0
 20 23  2  0  0  0  0
 20 35  1  0  0  0  0
 21 36  1  0  0  0  0
 21 37  1  0  0  0  0
 21 38  1  0  0  0  0
 22 39  1  0  0  0  0
 22 40  1  0  0  0  0
 22 41  1  0  0  0  0
 23 42  1  0  0  0  0
M  END
> <PUBCHEM_COMPOUND_CID>
10781192

> <PUBCHEM_CONFORMER_RMSD>
0.6

> <PUBCHEM_CONFORMER_DIVERSEORDER>
2
8
7
6
3
5
9
1
4

> <PUBCHEM_MMFF94_PARTIAL_CHARGES>
27
1 -0.36
11 0.27
12 0.08
13 -0.15
15 -0.15
16 -0.15
17 -0.15
18 0.56
19 -0.15
2 -0.36
20 -0.15
21 0.27
22 0.27
23 -0.15
27 0.15
28 0.15
29 0.15
3 -0.68
30 0.15
33 0.15
34 0.4
35 0.15
4 -0.81
42 0.15
5 -0.14
8 0.42
9 0.08

> <PUBCHEM_EFFECTIVE_ROTOR_COUNT>
3.6

> <PUBCHEM_PHARMACOPHORE_FEATURES>
9
1 1 acceptor
1 2 acceptor
1 3 acceptor
1 3 donor
1 4 cation
5 1 2 9 12 18 rings
6 10 14 17 19 20 23 rings
6 5 6 7 9 12 13 rings
6 6 7 10 14 15 16 rings

> <PUBCHEM_HEAVY_ATOM_COUNT>
23

> <PUBCHEM_ATOM_DEF_STEREO_COUNT>
0

> <PUBCHEM_ATOM_UDEF_STEREO_COUNT>
1

> <PUBCHEM_BOND_DEF_STEREO_COUNT>
0

> <PUBCHEM_BOND_UDEF_STEREO_COUNT>
0

> <PUBCHEM_ISOTOPIC_ATOM_COUNT>
0

> <PUBCHEM_COMPONENT_COUNT>
1

> <PUBCHEM_CACTVS_TAUTO_COUNT>
1

> <PUBCHEM_CONFORMER_ID>
00A4820800000002

> <PUBCHEM_MMFF94_ENERGY>
81.7867

> <PUBCHEM_FEATURE_SELFOVERLAP>
45.874

> <PUBCHEM_SHAPE_FINGERPRINT>
10319926 262 18124003804030656962
10411042 1 18410011086996704451
10906281 52 17973447899528994736
10967382 1 17832137600001447337
1100329 8 18411985724355611609
116883 192 18411418444678899700
12403259 226 18342450435470682304
12553582 1 18408035221704425443
12788726 201 18333733477263588554
12954195 1 18268998579079204342
13140716 1 18264484169277541497
138480 1 15384432808484707241
14022347 108 18260822747911558594
14251757 5 18261119581617836638
14508225 48 18410291427948932204
14790565 3 17548423609052051105
14866123 147 18268714900968783395
14955137 171 18263099841331098779
15042514 8 18338233739321087368
15081414 286 18194405717286068753
15420108 30 17047089673455793208
15442244 35 18194399116385266073
15927050 60 17765433145985275181
16087824 20 18265616482141087349
16752209 62 18334852767189005346
16945 1 18408595955454501001
17357779 13 18341316864620510221
17492 89 17908422811806325759
1813 80 18270413791988039511
19591789 44 18409727365825418387
20510252 161 18341603798458781032
20871999 31 18337117778564608228
20905425 154 18268990873750074470
21267235 1 18338241561269527187
21279426 13 18409156719691503653
21285901 2 18130235877900321542
21478907 32 18410008814810935099
221490 88 17902514019185696027
22182313 1 18266999795483341432
23175994 123 18336547230788043143
2334 1 17975971287256760401
23366157 5 17392184523173920233
23402539 116 18342172254649796943
23536364 44 18265030480575111917
23557571 272 18129390310756366670
23559900 14 18412541042151329216
2748010 2 18193822959106833033
3004659 81 18186802496149748270
3091708 16 9567030443551859201
335352 9 18410855465304201471
350125 39 18121780521902978353
352729 6 17689138025248317939
58779409 8 18120652431441755364
59755656 215 18339078168984309607
59755656 520 17626118446566063720
7164475 11 18335985273114394662
7237137 82 18260553290416956988
7364860 26 17761773270712670465
81228 2 18408886243430089120
9709674 26 17976538643778718283
9971528 1 18270959179878118643

> <PUBCHEM_SHAPE_MULTIPOLES>
450.74
8.94
4.15
0.9
6.63
3.69
-0.11
-8.02
-2.28
-2.38
-0.21
1.04
-0.17
0.66

> <PUBCHEM_SHAPE_SELFOVERLAP>
1005.378

> <PUBCHEM_SHAPE_VOLUME>
240.9

> <PUBCHEM_COORDINATE_TYPE>
2
5
10

$$$$
