102004748
  -OEChem-09062014133D

 58 61  0     1  0  0  0  0  0999 V2000
   -0.6966   -1.6817   -0.2453 O   0  0  0  0  0  0  0  0  0  0  0  0
    0.4370    2.1182   -2.5661 O   0  0  0  0  0  0  0  0  0  0  0  0
   -2.8192    1.8711   -0.9133 O   0  0  0  0  0  0  0  0  0  0  0  0
   -3.2692   -0.8183   -0.6777 O   0  0  0  0  0  0  0  0  0  0  0  0
    2.2039   -1.3276    1.7860 O   0  0  0  0  0  0  0  0  0  0  0  0
    4.3059   -1.9294    0.2449 O   0  0  0  0  0  0  0  0  0  0  0  0
   -0.3088   -3.6272    0.9384 O   0  0  0  0  0  0  0  0  0  0  0  0
   -4.7085   -1.7446    0.8737 O   0  0  0  0  0  0  0  0  0  0  0  0
    0.3022    3.7434    0.7478 N   0  0  0  0  0  0  0  0  0  0  0  0
    0.2340    0.8071    1.1108 C   0  0  2  0  0  0  0  0  0  0  0  0
   -0.7517    1.5669    0.2189 C   0  0  0  0  0  0  0  0  0  0  0  0
   -0.1389    2.8357   -0.3284 C   0  0  2  0  0  0  0  0  0  0  0  0
   -0.4812   -0.4042    1.7937 C   0  0  0  0  0  0  0  0  0  0  0  0
    0.6887    1.7853    2.2351 C   0  0  0  0  0  0  0  0  0  0  0  0
    1.4782    0.4419    0.2705 C   0  0  0  0  0  0  0  0  0  0  0  0
    1.0042    2.4317   -1.2887 C   0  0  1  0  0  0  0  0  0  0  0  0
   -1.4302   -1.1482    0.8538 C   0  0  1  0  0  0  0  0  0  0  0  0
    1.2199    3.1226    1.7031 C   0  0  0  0  0  0  0  0  0  0  0  0
   -1.9836    1.1267   -0.1019 C   0  0  0  0  0  0  0  0  0  0  0  0
   -2.5283   -0.1952    0.3679 C   0  0  1  0  0  0  0  0  0  0  0  0
    1.8274    1.2303   -0.8566 C   0  0  0  0  0  0  0  0  0  0  0  0
    2.3371   -0.6110    0.6333 C   0  0  0  0  0  0  0  0  0  0  0  0
    2.9776    0.9147   -1.6024 C   0  0  0  0  0  0  0  0  0  0  0  0
    3.4752   -0.9107   -0.1189 C   0  0  0  0  0  0  0  0  0  0  0  0
    3.7923   -0.1533   -1.2391 C   0  0  0  0  0  0  0  0  0  0  0  0
   -0.1893   -2.9372   -0.0649 C   0  0  0  0  0  0  0  0  0  0  0  0
   -3.6154    2.7467   -0.1406 C   0  0  0  0  0  0  0  0  0  0  0  0
   -4.3400   -1.5674   -0.2795 C   0  0  0  0  0  0  0  0  0  0  0  0
    0.5531   -3.3655   -1.2944 C   0  0  0  0  0  0  0  0  0  0  0  0
   -5.0191   -2.1581   -1.4777 C   0  0  0  0  0  0  0  0  0  0  0  0
    5.4433   -2.1627   -0.5824 C   0  0  0  0  0  0  0  0  0  0  0  0
   -0.8750    3.4039   -0.9086 H   0  0  0  0  0  0  0  0  0  0  0  0
   -1.1052   -0.0169    2.6141 H   0  0  0  0  0  0  0  0  0  0  0  0
    0.1763   -1.1091    2.2932 H   0  0  0  0  0  0  0  0  0  0  0  0
    1.4597    1.3204    2.8630 H   0  0  0  0  0  0  0  0  0  0  0  0
   -0.1599    2.0033    2.8992 H   0  0  0  0  0  0  0  0  0  0  0  0
    1.6767    3.2863   -1.4400 H   0  0  0  0  0  0  0  0  0  0  0  0
   -1.9266   -1.9616    1.3990 H   0  0  0  0  0  0  0  0  0  0  0  0
    1.3645    3.8097    2.5450 H   0  0  0  0  0  0  0  0  0  0  0  0
    2.2113    3.0019    1.2533 H   0  0  0  0  0  0  0  0  0  0  0  0
   -3.1899    0.0442    1.2125 H   0  0  0  0  0  0  0  0  0  0  0  0
   -0.5233    4.0717    1.2502 H   0  0  0  0  0  0  0  0  0  0  0  0
    3.2459    1.5126   -2.4706 H   0  0  0  0  0  0  0  0  0  0  0  0
    0.0088    2.9238   -2.9024 H   0  0  0  0  0  0  0  0  0  0  0  0
    4.6583   -0.3222   -1.8690 H   0  0  0  0  0  0  0  0  0  0  0  0
    2.9134   -1.9908    1.8399 H   0  0  0  0  0  0  0  0  0  0  0  0
   -4.2280    3.3418   -0.8246 H   0  0  0  0  0  0  0  0  0  0  0  0
   -3.0072    3.4383    0.4523 H   0  0  0  0  0  0  0  0  0  0  0  0
   -4.2924    2.1886    0.5155 H   0  0  0  0  0  0  0  0  0  0  0  0
   -0.1596   -3.6682   -2.0651 H   0  0  0  0  0  0  0  0  0  0  0  0
    1.2032   -4.2098   -1.0485 H   0  0  0  0  0  0  0  0  0  0  0  0
    1.1832   -2.5512   -1.6609 H   0  0  0  0  0  0  0  0  0  0  0  0
   -5.8755   -2.7554   -1.1518 H   0  0  0  0  0  0  0  0  0  0  0  0
   -4.3238   -2.8093   -2.0134 H   0  0  0  0  0  0  0  0  0  0  0  0
   -5.3797   -1.3591   -2.1304 H   0  0  0  0  0  0  0  0  0  0  0  0
    5.9835   -3.0130   -0.1531 H   0  0  0  0  0  0  0  0  0  0  0  0
    6.1334   -1.3121   -0.5709 H   0  0  0  0  0  0  0  0  0  0  0  0
    5.1530   -2.4533   -1.5978 H   0  0  0  0  0  0  0  0  0  0  0  0
  1 17  1  0  0  0  0
  1 26  1  0  0  0  0
  2 16  1  0  0  0  0
  2 44  1  0  0  0  0
  3 19  1  0  0  0  0
  3 27  1  0  0  0  0
  4 20  1  0  0  0  0
  4 28  1  0  0  0  0
  5 22  1  0  0  0  0
  5 46  1  0  0  0  0
  6 24  1  0  0  0  0
  6 31  1  0  0  0  0
  7 26  2  0  0  0  0
  8 28  2  0  0  0  0
  9 12  1  0  0  0  0
  9 18  1  0  0  0  0
  9 42  1  0  0  0  0
 10 11  1  0  0  0  0
 10 13  1  0  0  0  0
 10 14  1  0  0  0  0
 10 15  1  0  0  0  0
 11 12  1  0  0  0  0
 11 19  2  0  0  0  0
 12 16  1  0  0  0  0
 12 32  1  0  0  0  0
 13 17  1  0  0  0  0
 13 33  1  0  0  0  0
 13 34  1  0  0  0  0
 14 18  1  0  0  0  0
 14 35  1  0  0  0  0
 14 36  1  0  0  0  0
 15 21  2  0  0  0  0
 15 22  1  0  0  0  0
 16 21  1  0  0  0  0
 16 37  1  0  0  0  0
 17 20  1  0  0  0  0
 17 38  1  0  0  0  0
 18 39  1  0  0  0  0
 18 40  1  0  0  0  0
 19 20  1  0  0  0  0
 20 41  1  0  0  0  0
 21 23  1  0  0  0  0
 22 24  2  0  0  0  0
 23 25  2  0  0  0  0
 23 43  1  0  0  0  0
 24 25  1  0  0  0  0
 25 45  1  0  0  0  0
 26 29  1  0  0  0  0
 27 47  1  0  0  0  0
 27 48  1  0  0  0  0
 27 49  1  0  0  0  0
 28 30  1  0  0  0  0
 29 50  1  0  0  0  0
 29 51  1  0  0  0  0
 29 52  1  0  0  0  0
 30 53  1  0  0  0  0
 30 54  1  0  0  0  0
 30 55  1  0  0  0  0
 31 56  1  0  0  0  0
 31 57  1  0  0  0  0
 31 58  1  0  0  0  0
M  END
> <PUBCHEM_COMPOUND_CID>
102004748

> <PUBCHEM_CONFORMER_RMSD>
1

> <PUBCHEM_CONFORMER_DIVERSEORDER>
1
10
12
3
9
4
6
2
11
5
8
7

> <PUBCHEM_MMFF94_PARTIAL_CHARGES>
34
1 -0.43
10 0.28
11 -0.28
12 0.41
15 -0.14
16 0.42
17 0.28
18 0.27
19 -0.06
2 -0.68
20 0.42
21 -0.14
22 0.08
23 -0.15
24 0.08
25 -0.15
26 0.66
27 0.28
28 0.66
29 0.06
3 -0.36
30 0.06
31 0.28
4 -0.43
42 0.36
43 0.15
44 0.4
45 0.15
46 0.45
5 -0.53
6 -0.36
7 -0.57
8 -0.57
9 -0.9

> <PUBCHEM_EFFECTIVE_ROTOR_COUNT>
7.4

> <PUBCHEM_PHARMACOPHORE_FEATURES>
13
1 2 acceptor
1 2 donor
1 3 acceptor
1 5 donor
1 6 acceptor
1 7 acceptor
1 8 acceptor
1 9 cation
1 9 donor
6 10 11 12 15 16 21 rings
6 10 11 13 17 19 20 rings
6 15 21 22 23 24 25 rings
6 9 10 11 12 14 18 rings

> <PUBCHEM_HEAVY_ATOM_COUNT>
31

> <PUBCHEM_ATOM_DEF_STEREO_COUNT>
2

> <PUBCHEM_ATOM_UDEF_STEREO_COUNT>
3

> <PUBCHEM_BOND_DEF_STEREO_COUNT>
0

> <PUBCHEM_BOND_UDEF_STEREO_COUNT>
0

> <PUBCHEM_ISOTOPIC_ATOM_COUNT>
0

> <PUBCHEM_COMPONENT_COUNT>
1

> <PUBCHEM_CACTVS_TAUTO_COUNT>
8

> <PUBCHEM_CONFORMER_ID>
0614780C00000001

> <PUBCHEM_MMFF94_ENERGY>
94.3784

> <PUBCHEM_FEATURE_SELFOVERLAP>
67.589

> <PUBCHEM_SHAPE_FINGERPRINT>
10863032 1 18261397719462941588
11578080 2 18411409610106102904
12788726 201 18270983266539998476
13140716 1 18339077090610044593
14955137 171 18267888128259364273
16752209 62 18409165506477516979
16945 1 17532106031909217384
17492 54 18189346816983827246
20691752 17 18050272958905037463
20775438 99 17621858204244650215
20905425 154 18055070965012464967
22182313 1 18265871705565132153
229495 10 17248127553305642888
23419403 2 16115066488466091410
23559900 14 17978514461757493092
3380486 145 18197512731230099603
463206 1 18125715695435641775
70251023 43 18339919428803210027

> <PUBCHEM_SHAPE_MULTIPOLES>
586.03
7.47
4.46
1.79
1.76
0.11
-0.01
-6.01
2.39
0.6
0.06
-0.46
0.63
-0.12

> <PUBCHEM_SHAPE_SELFOVERLAP>
1270.303

> <PUBCHEM_SHAPE_VOLUME>
315.8

> <PUBCHEM_COORDINATE_TYPE>
2
5
10

$$$$
