3082494
  -OEChem-09062013443D

 85 91  0     1  0  0  0  0  0999 V2000
   -1.1555    0.0554    0.7472 O   0  0  0  0  0  0  0  0  0  0  0  0
   -3.7282   -0.1780    1.8097 O   0  0  0  0  0  0  0  0  0  0  0  0
   -5.5294    1.8799    1.5012 O   0  0  0  0  0  0  0  0  0  0  0  0
   -3.0081   -0.3491   -1.5238 O   0  0  0  0  0  0  0  0  0  0  0  0
    4.5950   -0.0081    0.9447 O   0  0  0  0  0  0  0  0  0  0  0  0
    6.1815    2.0767    0.2524 O   0  0  0  0  0  0  0  0  0  0  0  0
   -0.0257    3.4927   -1.5543 N   0  0  2  0  0  0  0  0  0  0  0  0
   -0.5121   -5.9582    0.2769 N   0  0  0  0  0  0  0  0  0  0  0  0
   -0.2238    2.4799   -0.4861 C   0  0  2  0  0  0  0  0  0  0  0  0
   -1.6687    2.2599   -0.0406 C   0  0  0  0  0  0  0  0  0  0  0  0
   -1.2482    4.1178   -2.0705 C   0  0  0  0  0  0  0  0  0  0  0  0
   -2.6111    3.2888   -0.2009 C   0  0  0  0  0  0  0  0  0  0  0  0
   -2.1976    4.5246   -0.9449 C   0  0  0  0  0  0  0  0  0  0  0  0
    0.5922    2.9318    0.7576 C   0  0  0  0  0  0  0  0  0  0  0  0
   -2.0726    1.0697    0.5899 C   0  0  0  0  0  0  0  0  0  0  0  0
    0.1402   -4.6434    0.4635 C   0  0  2  0  0  0  0  0  0  0  0  0
   -0.7482   -3.5007    0.0003 C   0  0  0  0  0  0  0  0  0  0  0  0
    0.7768    2.9710   -2.6623 C   0  0  0  0  0  0  0  0  0  0  0  0
   -3.9018    3.1550    0.3237 C   0  0  0  0  0  0  0  0  0  0  0  0
   -1.7082   -3.7083   -1.0033 C   0  0  0  0  0  0  0  0  0  0  0  0
    2.0798    2.7113    0.6302 C   0  0  0  0  0  0  0  0  0  0  0  0
   -2.0102   -5.0957   -1.5088 C   0  0  0  0  0  0  0  0  0  0  0  0
   -0.9770   -6.1455   -1.0994 C   0  0  0  0  0  0  0  0  0  0  0  0
   -3.3581    0.9443    1.1286 C   0  0  0  0  0  0  0  0  0  0  0  0
    1.5346   -4.6500   -0.2204 C   0  0  0  0  0  0  0  0  0  0  0  0
   -4.2699    1.9883    0.9922 C   0  0  0  0  0  0  0  0  0  0  0  0
   -1.3923   -1.1487    0.1142 C   0  0  0  0  0  0  0  0  0  0  0  0
   -0.6157   -2.2210    0.5652 C   0  0  0  0  0  0  0  0  0  0  0  0
   -2.4651   -2.6250   -1.4704 C   0  0  0  0  0  0  0  0  0  0  0  0
   -2.2944   -1.3479   -0.9322 C   0  0  0  0  0  0  0  0  0  0  0  0
    2.3920   -3.4407    0.0707 C   0  0  0  0  0  0  0  0  0  0  0  0
    2.6180    1.4378    0.8624 C   0  0  0  0  0  0  0  0  0  0  0  0
    2.9361    3.7605    0.2746 C   0  0  0  0  0  0  0  0  0  0  0  0
    3.9920    1.2125    0.7166 C   0  0  0  0  0  0  0  0  0  0  0  0
    4.3089    3.5398    0.1527 C   0  0  0  0  0  0  0  0  0  0  0  0
    2.6349   -2.4935   -0.9358 C   0  0  0  0  0  0  0  0  0  0  0  0
    2.9385   -3.2387    1.3456 C   0  0  0  0  0  0  0  0  0  0  0  0
    4.8381    2.2693    0.3773 C   0  0  0  0  0  0  0  0  0  0  0  0
    3.8739   -1.1352    0.6234 C   0  0  0  0  0  0  0  0  0  0  0  0
    3.3815   -1.3482   -0.6660 C   0  0  0  0  0  0  0  0  0  0  0  0
    3.6822   -2.0908    1.6214 C   0  0  0  0  0  0  0  0  0  0  0  0
   -3.5007   -0.1848    3.2170 C   0  0  0  0  0  0  0  0  0  0  0  0
   -6.5302    1.3340    0.6442 C   0  0  0  0  0  0  0  0  0  0  0  0
   -2.4103    0.2974   -2.6454 C   0  0  0  0  0  0  0  0  0  0  0  0
    6.6665    1.7127   -1.0385 C   0  0  0  0  0  0  0  0  0  0  0  0
    0.1514    1.5102   -0.8390 H   0  0  0  0  0  0  0  0  0  0  0  0
   -1.7684    3.4425   -2.7632 H   0  0  0  0  0  0  0  0  0  0  0  0
   -0.9792    5.0166   -2.6388 H   0  0  0  0  0  0  0  0  0  0  0  0
   -3.0732    5.0201   -1.3800 H   0  0  0  0  0  0  0  0  0  0  0  0
   -1.7193    5.2300   -0.2552 H   0  0  0  0  0  0  0  0  0  0  0  0
    0.2621    2.3916    1.6562 H   0  0  0  0  0  0  0  0  0  0  0  0
    0.3906    3.9880    0.9870 H   0  0  0  0  0  0  0  0  0  0  0  0
    0.2857   -4.5354    1.5464 H   0  0  0  0  0  0  0  0  0  0  0  0
    1.0119    3.7699   -3.3747 H   0  0  0  0  0  0  0  0  0  0  0  0
    0.2601    2.1707   -3.2031 H   0  0  0  0  0  0  0  0  0  0  0  0
    1.7361    2.5794   -2.3090 H   0  0  0  0  0  0  0  0  0  0  0  0
   -4.6219    3.9617    0.2091 H   0  0  0  0  0  0  0  0  0  0  0  0
   -2.9886   -5.3875   -1.1052 H   0  0  0  0  0  0  0  0  0  0  0  0
   -2.0922   -5.0837   -2.6021 H   0  0  0  0  0  0  0  0  0  0  0  0
   -1.4227   -7.1427   -1.1921 H   0  0  0  0  0  0  0  0  0  0  0  0
   -0.1326   -6.1394   -1.7969 H   0  0  0  0  0  0  0  0  0  0  0  0
    1.4318   -4.7416   -1.3089 H   0  0  0  0  0  0  0  0  0  0  0  0
    2.0970   -5.5379    0.1004 H   0  0  0  0  0  0  0  0  0  0  0  0
   -1.3140   -6.0179    0.9054 H   0  0  0  0  0  0  0  0  0  0  0  0
    0.0982   -2.0557    1.3693 H   0  0  0  0  0  0  0  0  0  0  0  0
   -3.1972   -2.7832   -2.2600 H   0  0  0  0  0  0  0  0  0  0  0  0
    1.9510    0.6325    1.1605 H   0  0  0  0  0  0  0  0  0  0  0  0
    2.5400    4.7557    0.0903 H   0  0  0  0  0  0  0  0  0  0  0  0
    4.9610    4.3657   -0.1191 H   0  0  0  0  0  0  0  0  0  0  0  0
    2.2307   -2.6356   -1.9350 H   0  0  0  0  0  0  0  0  0  0  0  0
    2.7732   -3.9673    2.1352 H   0  0  0  0  0  0  0  0  0  0  0  0
    3.5572   -0.6262   -1.4584 H   0  0  0  0  0  0  0  0  0  0  0  0
    4.0875   -1.9381    2.6178 H   0  0  0  0  0  0  0  0  0  0  0  0
   -4.0761    0.6083    3.7047 H   0  0  0  0  0  0  0  0  0  0  0  0
   -2.4349   -0.0642    3.4356 H   0  0  0  0  0  0  0  0  0  0  0  0
   -3.8308   -1.1494    3.6121 H   0  0  0  0  0  0  0  0  0  0  0  0
   -6.2635    0.3173    0.3387 H   0  0  0  0  0  0  0  0  0  0  0  0
   -6.6663    1.9678   -0.2378 H   0  0  0  0  0  0  0  0  0  0  0  0
   -7.4725    1.2972    1.1976 H   0  0  0  0  0  0  0  0  0  0  0  0
   -1.3412    0.4670   -2.4929 H   0  0  0  0  0  0  0  0  0  0  0  0
   -2.9120    1.2556   -2.8007 H   0  0  0  0  0  0  0  0  0  0  0  0
   -2.5553   -0.3165   -3.5397 H   0  0  0  0  0  0  0  0  0  0  0  0
    7.7501    1.5820   -0.9729 H   0  0  0  0  0  0  0  0  0  0  0  0
    6.4527    2.5031   -1.7649 H   0  0  0  0  0  0  0  0  0  0  0  0
    6.2197    0.7693   -1.3676 H   0  0  0  0  0  0  0  0  0  0  0  0
  1 15  1  0  0  0  0
  1 27  1  0  0  0  0
  2 24  1  0  0  0  0
  2 42  1  0  0  0  0
  3 26  1  0  0  0  0
  3 43  1  0  0  0  0
  4 30  1  0  0  0  0
  4 44  1  0  0  0  0
  5 34  1  0  0  0  0
  5 39  1  0  0  0  0
  6 38  1  0  0  0  0
  6 45  1  0  0  0  0
  7  9  1  0  0  0  0
  7 11  1  0  0  0  0
  7 18  1  0  0  0  0
  8 16  1  0  0  0  0
  8 23  1  0  0  0  0
  8 64  1  0  0  0  0
  9 10  1  0  0  0  0
  9 14  1  0  0  0  0
  9 46  1  0  0  0  0
 10 12  1  0  0  0  0
 10 15  2  0  0  0  0
 11 13  1  0  0  0  0
 11 47  1  0  0  0  0
 11 48  1  0  0  0  0
 12 13  1  0  0  0  0
 12 19  2  0  0  0  0
 13 49  1  0  0  0  0
 13 50  1  0  0  0  0
 14 21  1  0  0  0  0
 14 51  1  0  0  0  0
 14 52  1  0  0  0  0
 15 24  1  0  0  0  0
 16 17  1  0  0  0  0
 16 25  1  0  0  0  0
 16 53  1  0  0  0  0
 17 20  1  0  0  0  0
 17 28  2  0  0  0  0
 18 54  1  0  0  0  0
 18 55  1  0  0  0  0
 18 56  1  0  0  0  0
 19 26  1  0  0  0  0
 19 57  1  0  0  0  0
 20 22  1  0  0  0  0
 20 29  2  0  0  0  0
 21 32  2  0  0  0  0
 21 33  1  0  0  0  0
 22 23  1  0  0  0  0
 22 58  1  0  0  0  0
 22 59  1  0  0  0  0
 23 60  1  0  0  0  0
 23 61  1  0  0  0  0
 24 26  2  0  0  0  0
 25 31  1  0  0  0  0
 25 62  1  0  0  0  0
 25 63  1  0  0  0  0
 27 28  1  0  0  0  0
 27 30  2  0  0  0  0
 28 65  1  0  0  0  0
 29 30  1  0  0  0  0
 29 66  1  0  0  0  0
 31 36  2  0  0  0  0
 31 37  1  0  0  0  0
 32 34  1  0  0  0  0
 32 67  1  0  0  0  0
 33 35  2  0  0  0  0
 33 68  1  0  0  0  0
 34 38  2  0  0  0  0
 35 38  1  0  0  0  0
 35 69  1  0  0  0  0
 36 40  1  0  0  0  0
 36 70  1  0  0  0  0
 37 41  2  0  0  0  0
 37 71  1  0  0  0  0
 39 40  2  0  0  0  0
 39 41  1  0  0  0  0
 40 72  1  0  0  0  0
 41 73  1  0  0  0  0
 42 74  1  0  0  0  0
 42 75  1  0  0  0  0
 42 76  1  0  0  0  0
 43 77  1  0  0  0  0
 43 78  1  0  0  0  0
 43 79  1  0  0  0  0
 44 80  1  0  0  0  0
 44 81  1  0  0  0  0
 44 82  1  0  0  0  0
 45 83  1  0  0  0  0
 45 84  1  0  0  0  0
 45 85  1  0  0  0  0
M  END
> <PUBCHEM_COMPOUND_CID>
3082494

> <PUBCHEM_CONFORMER_RMSD>
1

> <PUBCHEM_CONFORMER_DIVERSEORDER>
2
3
1
4
5
6

> <PUBCHEM_MMFF94_PARTIAL_CHARGES>
56
1 -0.17
10 -0.14
11 0.27
12 -0.14
13 0.14
14 0.14
15 0.08
16 0.41
17 -0.14
18 0.27
19 -0.15
2 -0.36
20 -0.14
21 -0.14
22 0.14
23 0.27
24 0.08
25 0.14
26 0.08
27 0.08
28 -0.15
29 -0.15
3 -0.36
30 0.08
31 -0.14
32 -0.15
33 -0.15
34 0.08
35 -0.15
36 -0.15
37 -0.15
38 0.08
39 0.08
4 -0.36
40 -0.15
41 -0.15
42 0.28
43 0.28
44 0.28
45 0.28
5 -0.17
57 0.15
6 -0.36
64 0.36
65 0.15
66 0.15
67 0.15
68 0.15
69 0.15
7 -0.81
70 0.15
71 0.15
72 0.15
73 0.15
8 -0.9
9 0.41

> <PUBCHEM_EFFECTIVE_ROTOR_COUNT>
6

> <PUBCHEM_PHARMACOPHORE_FEATURES>
15
1 1 acceptor
1 2 acceptor
1 3 acceptor
1 4 acceptor
1 5 acceptor
1 6 acceptor
1 7 cation
1 8 cation
1 8 donor
6 10 12 15 19 24 26 rings
6 17 20 27 28 29 30 rings
6 21 32 33 34 35 38 rings
6 31 36 37 39 40 41 rings
6 7 9 10 11 12 13 rings
6 8 16 17 20 22 23 rings

> <PUBCHEM_HEAVY_ATOM_COUNT>
45

> <PUBCHEM_ATOM_DEF_STEREO_COUNT>
2

> <PUBCHEM_ATOM_UDEF_STEREO_COUNT>
0

> <PUBCHEM_BOND_DEF_STEREO_COUNT>
0

> <PUBCHEM_BOND_UDEF_STEREO_COUNT>
0

> <PUBCHEM_ISOTOPIC_ATOM_COUNT>
0

> <PUBCHEM_COMPONENT_COUNT>
1

> <PUBCHEM_CACTVS_TAUTO_COUNT>
1

> <PUBCHEM_CONFORMER_ID>
002F08FE00000002

> <PUBCHEM_MMFF94_ENERGY>
198.0866

> <PUBCHEM_FEATURE_SELFOVERLAP>
76.187

> <PUBCHEM_SHAPE_FINGERPRINT>
10190206 1 17037840586423829412
10290309 65 18194398897352639364
10439779 11 14881710537516259400
10581848 31 17906719655847290615
11513181 2 18340767040013324988
1361 2 18340486669138550131
140371 6 17907014332867607863
14068700 675 17548687938845532142
144659 178 17545038668142716980
150020 26 17832706768792933888
15320467 1 18339354283894426090
15351339 4 17399208233765214962
15400415 2 18411982451506545432
15927050 60 18341897419433718479
15968369 26 17613140889812628636
19311894 1 18267022954711502842
20764821 26 18194097665394264556
21133410 171 17189194821559791122
21133410 38 18272927203097873949
23559900 14 16896519785426559691
3298306 158 17615117789717045173
4017518 198 18412552010944188565
463206 1 17041190814957706310
50677037 204 17760933244436139736
5776283 40 18267326256928777366

> <PUBCHEM_SHAPE_MULTIPOLES>
880.9
10.33
9.15
1.99
4.88
10.39
0.2
-9.04
-3.36
0.46
3.19
-1.66
-0.37
-1.21

> <PUBCHEM_SHAPE_SELFOVERLAP>
1941.228

> <PUBCHEM_SHAPE_VOLUME>
472.2

> <PUBCHEM_COORDINATE_TYPE>
2
5
10

$$$$
