181384
  -OEChem-09062013543D

 80 87  0     1  0  0  0  0  0999 V2000
   -1.0296   -0.2480   -0.3133 O   0  0  0  0  0  0  0  0  0  0  0  0
   -1.4271   -1.5642    2.3032 O   0  0  0  0  0  0  0  0  0  0  0  0
   -3.5239   -1.4854    3.4762 O   0  0  0  0  0  0  0  0  0  0  0  0
   -2.4265   -2.6943   -0.9766 O   0  0  0  0  0  0  0  0  0  0  0  0
    2.8009    3.0234    1.0067 O   0  0  0  0  0  0  0  0  0  0  0  0
    5.0563    3.5663   -0.4770 O   0  0  0  0  0  0  0  0  0  0  0  0
   -4.3853    1.5028   -2.0681 N   0  0  1  0  0  0  0  0  0  0  0  0
    3.8117   -3.9962   -0.2033 N   0  0  0  0  0  0  0  0  0  0  0  0
   -3.1020    1.4624   -1.3263 C   0  0  2  0  0  0  0  0  0  0  0  0
   -3.2623    0.5792   -0.0881 C   0  0  0  0  0  0  0  0  0  0  0  0
   -4.5038    0.5887    0.6016 C   0  0  0  0  0  0  0  0  0  0  0  0
   -5.4622    2.0807   -1.2607 C   0  0  0  0  0  0  0  0  0  0  0  0
   -5.7198    1.2551    0.0040 C   0  0  0  0  0  0  0  0  0  0  0  0
   -2.5593    2.8695   -0.9225 C   0  0  0  0  0  0  0  0  0  0  0  0
   -2.1998   -0.2068    0.4054 C   0  0  0  0  0  0  0  0  0  0  0  0
    3.2599   -2.6316   -0.3595 C   0  0  1  0  0  0  0  0  0  0  0  0
    1.7360   -2.6347   -0.4982 C   0  0  0  0  0  0  0  0  0  0  0  0
   -4.6467   -0.1053    1.8137 C   0  0  0  0  0  0  0  0  0  0  0  0
   -2.3639   -0.8432    1.6254 C   0  0  0  0  0  0  0  0  0  0  0  0
   -4.2841    2.1586   -3.3682 C   0  0  0  0  0  0  0  0  0  0  0  0
    1.0478   -3.8256   -0.8067 C   0  0  0  0  0  0  0  0  0  0  0  0
   -3.5566   -0.7898    2.3065 C   0  0  0  0  0  0  0  0  0  0  0  0
    1.7938   -5.1255   -0.9617 C   0  0  0  0  0  0  0  0  0  0  0  0
   -1.1314    2.8972   -0.4229 C   0  0  0  0  0  0  0  0  0  0  0  0
    3.2810   -4.9065   -1.2120 C   0  0  0  0  0  0  0  0  0  0  0  0
    3.7920   -1.8161    0.8564 C   0  0  0  0  0  0  0  0  0  0  0  0
   -0.4070   -1.4640   -0.4855 C   0  0  0  0  0  0  0  0  0  0  0  0
    0.9874   -1.4549   -0.3967 C   0  0  0  0  0  0  0  0  0  0  0  0
   -0.3514   -3.8231   -0.9383 C   0  0  0  0  0  0  0  0  0  0  0  0
   -1.0800   -2.6459   -0.7817 C   0  0  0  0  0  0  0  0  0  0  0  0
    4.1418   -0.3781    0.5383 C   0  0  0  0  0  0  0  0  0  0  0  0
   -0.8546    3.0968    0.9381 C   0  0  0  0  0  0  0  0  0  0  0  0
   -0.0637    2.7442   -1.3174 C   0  0  0  0  0  0  0  0  0  0  0  0
   -2.1692   -1.9731    3.4674 C   0  0  0  0  0  0  0  0  0  0  0  0
    3.3531    0.6747    1.0165 C   0  0  0  0  0  0  0  0  0  0  0  0
    0.4634    3.1346    1.3987 C   0  0  0  0  0  0  0  0  0  0  0  0
    1.2553    2.7796   -0.8606 C   0  0  0  0  0  0  0  0  0  0  0  0
    1.5165    2.9583    0.5020 C   0  0  0  0  0  0  0  0  0  0  0  0
    5.2616   -0.0786   -0.2523 C   0  0  0  0  0  0  0  0  0  0  0  0
    3.6304    1.9896    0.6314 C   0  0  0  0  0  0  0  0  0  0  0  0
    5.5751    1.2449   -0.5721 C   0  0  0  0  0  0  0  0  0  0  0  0
    4.7584    2.2842   -0.1319 C   0  0  0  0  0  0  0  0  0  0  0  0
   -2.8964   -2.5046   -2.3102 C   0  0  0  0  0  0  0  0  0  0  0  0
    5.8842    4.3048    0.4203 C   0  0  0  0  0  0  0  0  0  0  0  0
   -2.3783    0.9740   -1.9914 H   0  0  0  0  0  0  0  0  0  0  0  0
   -6.3968    2.1125   -1.8356 H   0  0  0  0  0  0  0  0  0  0  0  0
   -5.2435    3.1207   -0.9897 H   0  0  0  0  0  0  0  0  0  0  0  0
   -6.4321    0.4574   -0.2466 H   0  0  0  0  0  0  0  0  0  0  0  0
   -6.1945    1.8960    0.7567 H   0  0  0  0  0  0  0  0  0  0  0  0
   -3.2012    3.3242   -0.1565 H   0  0  0  0  0  0  0  0  0  0  0  0
   -2.5958    3.5544   -1.7781 H   0  0  0  0  0  0  0  0  0  0  0  0
    3.6667   -2.2203   -1.2928 H   0  0  0  0  0  0  0  0  0  0  0  0
   -5.5909   -0.1069    2.3490 H   0  0  0  0  0  0  0  0  0  0  0  0
   -4.1372    3.2407   -3.2922 H   0  0  0  0  0  0  0  0  0  0  0  0
   -5.1991    1.9875   -3.9465 H   0  0  0  0  0  0  0  0  0  0  0  0
   -3.4622    1.7354   -3.9560 H   0  0  0  0  0  0  0  0  0  0  0  0
    1.6502   -5.7169   -0.0485 H   0  0  0  0  0  0  0  0  0  0  0  0
    1.3767   -5.6977   -1.7990 H   0  0  0  0  0  0  0  0  0  0  0  0
    3.8086   -5.8646   -1.1526 H   0  0  0  0  0  0  0  0  0  0  0  0
    3.4598   -4.5085   -2.2186 H   0  0  0  0  0  0  0  0  0  0  0  0
    4.7217   -2.2619    1.2404 H   0  0  0  0  0  0  0  0  0  0  0  0
    3.0856   -1.8649    1.6959 H   0  0  0  0  0  0  0  0  0  0  0  0
    3.5877   -4.3509    0.7270 H   0  0  0  0  0  0  0  0  0  0  0  0
    1.4750   -0.5028   -0.2429 H   0  0  0  0  0  0  0  0  0  0  0  0
   -0.8713   -4.7500   -1.1720 H   0  0  0  0  0  0  0  0  0  0  0  0
   -1.6658    3.2253    1.6505 H   0  0  0  0  0  0  0  0  0  0  0  0
   -0.2543    2.6005   -2.3781 H   0  0  0  0  0  0  0  0  0  0  0  0
   -1.6551   -1.6002    4.3606 H   0  0  0  0  0  0  0  0  0  0  0  0
   -2.1892   -3.0683    3.5045 H   0  0  0  0  0  0  0  0  0  0  0  0
    2.4945    0.4666    1.6505 H   0  0  0  0  0  0  0  0  0  0  0  0
    0.6588    3.2922    2.4559 H   0  0  0  0  0  0  0  0  0  0  0  0
    2.0631    2.6729   -1.5789 H   0  0  0  0  0  0  0  0  0  0  0  0
    5.8982   -0.8779   -0.6243 H   0  0  0  0  0  0  0  0  0  0  0  0
    6.4506    1.4548   -1.1809 H   0  0  0  0  0  0  0  0  0  0  0  0
   -2.5097   -1.5713   -2.7317 H   0  0  0  0  0  0  0  0  0  0  0  0
   -3.9881   -2.4500   -2.2837 H   0  0  0  0  0  0  0  0  0  0  0  0
   -2.6021   -3.3502   -2.9396 H   0  0  0  0  0  0  0  0  0  0  0  0
    6.8626    3.8244    0.5216 H   0  0  0  0  0  0  0  0  0  0  0  0
    5.4056    4.3941    1.4007 H   0  0  0  0  0  0  0  0  0  0  0  0
    6.0272    5.3073    0.0080 H   0  0  0  0  0  0  0  0  0  0  0  0
  1 15  1  0  0  0  0
  1 27  1  0  0  0  0
  2 19  1  0  0  0  0
  2 34  1  0  0  0  0
  3 22  1  0  0  0  0
  3 34  1  0  0  0  0
  4 30  1  0  0  0  0
  4 43  1  0  0  0  0
  5 38  1  0  0  0  0
  5 40  1  0  0  0  0
  6 42  1  0  0  0  0
  6 44  1  0  0  0  0
  7  9  1  0  0  0  0
  7 12  1  0  0  0  0
  7 20  1  0  0  0  0
  8 16  1  0  0  0  0
  8 25  1  0  0  0  0
  8 63  1  0  0  0  0
  9 10  1  0  0  0  0
  9 14  1  0  0  0  0
  9 45  1  0  0  0  0
 10 11  1  0  0  0  0
 10 15  2  0  0  0  0
 11 13  1  0  0  0  0
 11 18  2  0  0  0  0
 12 13  1  0  0  0  0
 12 46  1  0  0  0  0
 12 47  1  0  0  0  0
 13 48  1  0  0  0  0
 13 49  1  0  0  0  0
 14 24  1  0  0  0  0
 14 50  1  0  0  0  0
 14 51  1  0  0  0  0
 15 19  1  0  0  0  0
 16 17  1  0  0  0  0
 16 26  1  0  0  0  0
 16 52  1  0  0  0  0
 17 21  1  0  0  0  0
 17 28  2  0  0  0  0
 18 22  1  0  0  0  0
 18 53  1  0  0  0  0
 19 22  2  0  0  0  0
 20 54  1  0  0  0  0
 20 55  1  0  0  0  0
 20 56  1  0  0  0  0
 21 23  1  0  0  0  0
 21 29  2  0  0  0  0
 23 25  1  0  0  0  0
 23 57  1  0  0  0  0
 23 58  1  0  0  0  0
 24 32  2  0  0  0  0
 24 33  1  0  0  0  0
 25 59  1  0  0  0  0
 25 60  1  0  0  0  0
 26 31  1  0  0  0  0
 26 61  1  0  0  0  0
 26 62  1  0  0  0  0
 27 28  1  0  0  0  0
 27 30  2  0  0  0  0
 28 64  1  0  0  0  0
 29 30  1  0  0  0  0
 29 65  1  0  0  0  0
 31 35  2  0  0  0  0
 31 39  1  0  0  0  0
 32 36  1  0  0  0  0
 32 66  1  0  0  0  0
 33 37  2  0  0  0  0
 33 67  1  0  0  0  0
 34 68  1  0  0  0  0
 34 69  1  0  0  0  0
 35 40  1  0  0  0  0
 35 70  1  0  0  0  0
 36 38  2  0  0  0  0
 36 71  1  0  0  0  0
 37 38  1  0  0  0  0
 37 72  1  0  0  0  0
 39 41  2  0  0  0  0
 39 73  1  0  0  0  0
 40 42  2  0  0  0  0
 41 42  1  0  0  0  0
 41 74  1  0  0  0  0
 43 75  1  0  0  0  0
 43 76  1  0  0  0  0
 43 77  1  0  0  0  0
 44 78  1  0  0  0  0
 44 79  1  0  0  0  0
 44 80  1  0  0  0  0
M  END
> <PUBCHEM_COMPOUND_CID>
181384

> <PUBCHEM_CONFORMER_RMSD>
1

> <PUBCHEM_CONFORMER_DIVERSEORDER>
1
3
2
4

> <PUBCHEM_MMFF94_PARTIAL_CHARGES>
55
1 -0.17
10 -0.14
11 -0.14
12 0.27
13 0.14
14 0.14
15 0.08
16 0.41
17 -0.14
18 -0.15
19 0.08
2 -0.36
20 0.27
21 -0.14
22 0.08
23 0.14
24 -0.14
25 0.27
26 0.14
27 0.08
28 -0.15
29 -0.15
3 -0.36
30 0.08
31 -0.14
32 -0.15
33 -0.15
34 0.56
35 -0.15
36 -0.15
37 -0.15
38 0.08
39 -0.15
4 -0.36
40 0.08
41 -0.15
42 0.08
43 0.28
44 0.28
5 -0.17
53 0.15
6 -0.36
63 0.36
64 0.15
65 0.15
66 0.15
67 0.15
7 -0.81
70 0.15
71 0.15
72 0.15
73 0.15
74 0.15
8 -0.9
9 0.41

> <PUBCHEM_EFFECTIVE_ROTOR_COUNT>
4.6

> <PUBCHEM_PHARMACOPHORE_FEATURES>
16
1 1 acceptor
1 2 acceptor
1 3 acceptor
1 4 acceptor
1 5 acceptor
1 6 acceptor
1 7 cation
1 8 cation
1 8 donor
5 2 3 19 22 34 rings
6 10 11 15 18 19 22 rings
6 17 21 27 28 29 30 rings
6 24 32 33 36 37 38 rings
6 31 35 39 40 41 42 rings
6 7 9 10 11 12 13 rings
6 8 16 17 21 23 25 rings

> <PUBCHEM_HEAVY_ATOM_COUNT>
44

> <PUBCHEM_ATOM_DEF_STEREO_COUNT>
2

> <PUBCHEM_ATOM_UDEF_STEREO_COUNT>
0

> <PUBCHEM_BOND_DEF_STEREO_COUNT>
0

> <PUBCHEM_BOND_UDEF_STEREO_COUNT>
0

> <PUBCHEM_ISOTOPIC_ATOM_COUNT>
0

> <PUBCHEM_COMPONENT_COUNT>
1

> <PUBCHEM_CACTVS_TAUTO_COUNT>
1

> <PUBCHEM_CONFORMER_ID>
0002C48800000001

> <PUBCHEM_MMFF94_ENERGY>
170.7254

> <PUBCHEM_FEATURE_SELFOVERLAP>
81.407

> <PUBCHEM_SHAPE_FINGERPRINT>
10290309 65 18338524135683661932
107951 10 17749095695818376985
11014199 57 16970829776346737336
11513181 2 17700413581231132484
13402501 40 18333733502912001217
1361 2 18341039783674827007
14004853 49 17972897027129617964
14114211 80 18199766888965025176
14295345 954 18409166624129155247
14725015 67 17900245417174748640
14747282 140 17831017193057428172
150020 26 18263095442609471288
15082195 135 18198878414660876223
15320467 1 18341046303556553788
15406563 42 16661225766040088088
15444296 8 16081915070316328446
16067689 68 14907065825914471068
161222 619 18410867546245812699
19315092 285 16627389278625522809
20764821 26 18340752824024879588
4015057 19 17977387127226091495
4435113 14 18187377493122081033
469060 322 18266748067988517859
508706 21 17895471544114485193
5265222 85 18191879035529611092

> <PUBCHEM_SHAPE_MULTIPOLES>
860.32
11.6
6.84
2.42
2.97
3.49
-1.09
-7.18
0.85
8.12
2.16
-4.28
0.76
3

> <PUBCHEM_SHAPE_SELFOVERLAP>
1922.592

> <PUBCHEM_SHAPE_VOLUME>
453.6

> <PUBCHEM_COORDINATE_TYPE>
2
5
10

$$$$
