11552547
  -OEChem-09062009383D

 60 64  0     1  0  0  0  0  0999 V2000
    3.7077    0.7102   -0.6470 O   0  0  0  0  0  0  0  0  0  0  0  0
   -3.6153   -0.4464   -0.6305 O   0  0  0  0  0  0  0  0  0  0  0  0
    3.5161    2.5190   -2.0303 O   0  0  0  0  0  0  0  0  0  0  0  0
   -5.8664   -0.8828   -0.6417 O   0  0  0  0  0  0  0  0  0  0  0  0
   -0.6051   -0.4528   -0.7567 N   0  0  2  0  0  0  0  0  0  0  0  0
    0.7949    0.5835    0.8457 C   0  0  1  0  0  0  0  0  0  0  0  0
    0.7981   -0.3325   -0.3817 C   0  0  1  0  0  0  0  0  0  0  0  0
    2.1300    1.3261    1.0256 C   0  0  1  0  0  0  0  0  0  0  0  0
    1.7011   -1.5572   -0.1066 C   0  0  1  0  0  0  0  0  0  0  0  0
    2.9505   -1.1341    0.7562 C   0  0  2  0  0  0  0  0  0  0  0  0
    3.2951    0.3704    0.6872 C   0  0  1  0  0  0  0  0  0  0  0  0
   -0.5584    1.2699    0.8023 C   0  0  0  0  0  0  0  0  0  0  0  0
   -1.4501    0.1311    0.2845 C   0  0  1  0  0  0  0  0  0  0  0  0
    2.5245    2.5504    0.1946 C   0  0  1  0  0  0  0  0  0  0  0  0
    0.9849   -2.7199    0.6194 C   0  0  0  0  0  0  0  0  0  0  0  0
   -1.0540   -1.6186   -1.4816 C   0  0  0  0  0  0  0  0  0  0  0  0
   -2.7886    0.6523   -0.2211 C   0  0  2  0  0  0  0  0  0  0  0  0
    4.1710   -1.9842    0.3761 C   0  0  0  0  0  0  0  0  0  0  0  0
    0.0814   -3.5597   -0.2757 C   0  0  0  0  0  0  0  0  0  0  0  0
   -1.2291   -2.8912   -0.6624 C   0  0  0  0  0  0  0  0  0  0  0  0
    3.2799    1.9638   -0.9686 C   0  0  0  0  0  0  0  0  0  0  0  0
   -3.5995    1.3527    0.8471 C   0  0  0  0  0  0  0  0  0  0  0  0
    1.4527    3.5178   -0.2554 C   0  0  0  0  0  0  0  0  0  0  0  0
    5.3727   -1.6145    1.2173 C   0  0  0  0  0  0  0  0  0  0  0  0
   -5.0138    1.1850    0.3262 C   0  0  1  0  0  0  0  0  0  0  0  0
   -4.9260   -0.1596   -0.3522 C   0  0  0  0  0  0  0  0  0  0  0  0
   -6.0544    1.2212    1.4291 C   0  0  0  0  0  0  0  0  0  0  0  0
    0.7190   -0.0611    1.7378 H   0  0  0  0  0  0  0  0  0  0  0  0
    1.2478    0.2065   -1.2243 H   0  0  0  0  0  0  0  0  0  0  0  0
    2.1776    1.6040    2.0875 H   0  0  0  0  0  0  0  0  0  0  0  0
    2.0512   -1.9305   -1.0787 H   0  0  0  0  0  0  0  0  0  0  0  0
    2.7196   -1.3421    1.8115 H   0  0  0  0  0  0  0  0  0  0  0  0
    4.1278    0.6133    1.3572 H   0  0  0  0  0  0  0  0  0  0  0  0
   -0.8646    1.6219    1.7926 H   0  0  0  0  0  0  0  0  0  0  0  0
   -0.5996    2.1092    0.1093 H   0  0  0  0  0  0  0  0  0  0  0  0
   -1.6088   -0.6040    1.0846 H   0  0  0  0  0  0  0  0  0  0  0  0
    3.2686    3.1188    0.7708 H   0  0  0  0  0  0  0  0  0  0  0  0
    0.4188   -2.3515    1.4830 H   0  0  0  0  0  0  0  0  0  0  0  0
    1.7392   -3.4054    1.0254 H   0  0  0  0  0  0  0  0  0  0  0  0
   -0.3499   -1.8175   -2.3010 H   0  0  0  0  0  0  0  0  0  0  0  0
   -1.9895   -1.3984   -2.0045 H   0  0  0  0  0  0  0  0  0  0  0  0
   -2.6487    1.3048   -1.0934 H   0  0  0  0  0  0  0  0  0  0  0  0
    4.4182   -1.8678   -0.6856 H   0  0  0  0  0  0  0  0  0  0  0  0
    3.9463   -3.0454    0.5323 H   0  0  0  0  0  0  0  0  0  0  0  0
   -0.1622   -4.4870    0.2584 H   0  0  0  0  0  0  0  0  0  0  0  0
    0.6271   -3.8628   -1.1777 H   0  0  0  0  0  0  0  0  0  0  0  0
   -1.8018   -3.6064   -1.2670 H   0  0  0  0  0  0  0  0  0  0  0  0
   -1.8367   -2.7057    0.2304 H   0  0  0  0  0  0  0  0  0  0  0  0
   -3.3172    2.4019    0.9767 H   0  0  0  0  0  0  0  0  0  0  0  0
   -3.4860    0.8483    1.8153 H   0  0  0  0  0  0  0  0  0  0  0  0
    0.8211    3.8305    0.5810 H   0  0  0  0  0  0  0  0  0  0  0  0
    1.9141    4.4227   -0.6686 H   0  0  0  0  0  0  0  0  0  0  0  0
    0.8368    3.1013   -1.0581 H   0  0  0  0  0  0  0  0  0  0  0  0
    5.8146   -0.6612    0.9127 H   0  0  0  0  0  0  0  0  0  0  0  0
    5.1272   -1.5711    2.2832 H   0  0  0  0  0  0  0  0  0  0  0  0
    6.1548   -2.3714    1.0911 H   0  0  0  0  0  0  0  0  0  0  0  0
   -5.2341    1.9366   -0.4405 H   0  0  0  0  0  0  0  0  0  0  0  0
   -5.8985    0.4164    2.1560 H   0  0  0  0  0  0  0  0  0  0  0  0
   -6.0245    2.1769    1.9619 H   0  0  0  0  0  0  0  0  0  0  0  0
   -7.0601    1.0934    1.0146 H   0  0  0  0  0  0  0  0  0  0  0  0
  1 11  1  0  0  0  0
  1 21  1  0  0  0  0
  2 17  1  0  0  0  0
  2 26  1  0  0  0  0
  3 21  2  0  0  0  0
  4 26  2  0  0  0  0
  5  7  1  0  0  0  0
  5 13  1  0  0  0  0
  5 16  1  0  0  0  0
  6  7  1  0  0  0  0
  6  8  1  0  0  0  0
  6 12  1  0  0  0  0
  6 28  1  0  0  0  0
  7  9  1  0  0  0  0
  7 29  1  0  0  0  0
  8 11  1  0  0  0  0
  8 14  1  0  0  0  0
  8 30  1  0  0  0  0
  9 10  1  0  0  0  0
  9 15  1  0  0  0  0
  9 31  1  0  0  0  0
 10 11  1  0  0  0  0
 10 18  1  0  0  0  0
 10 32  1  0  0  0  0
 11 33  1  0  0  0  0
 12 13  1  0  0  0  0
 12 34  1  0  0  0  0
 12 35  1  0  0  0  0
 13 17  1  0  0  0  0
 13 36  1  0  0  0  0
 14 21  1  0  0  0  0
 14 23  1  0  0  0  0
 14 37  1  0  0  0  0
 15 19  1  0  0  0  0
 15 38  1  0  0  0  0
 15 39  1  0  0  0  0
 16 20  1  0  0  0  0
 16 40  1  0  0  0  0
 16 41  1  0  0  0  0
 17 22  1  0  0  0  0
 17 42  1  0  0  0  0
 18 24  1  0  0  0  0
 18 43  1  0  0  0  0
 18 44  1  0  0  0  0
 19 20  1  0  0  0  0
 19 45  1  0  0  0  0
 19 46  1  0  0  0  0
 20 47  1  0  0  0  0
 20 48  1  0  0  0  0
 22 25  1  0  0  0  0
 22 49  1  0  0  0  0
 22 50  1  0  0  0  0
 23 51  1  0  0  0  0
 23 52  1  0  0  0  0
 23 53  1  0  0  0  0
 24 54  1  0  0  0  0
 24 55  1  0  0  0  0
 24 56  1  0  0  0  0
 25 26  1  0  0  0  0
 25 27  1  0  0  0  0
 25 57  1  0  0  0  0
 27 58  1  0  0  0  0
 27 59  1  0  0  0  0
 27 60  1  0  0  0  0
M  END
> <PUBCHEM_COMPOUND_CID>
11552547

> <PUBCHEM_CONFORMER_RMSD>
0.8

> <PUBCHEM_CONFORMER_DIVERSEORDER>
3
7
10
9
6
11
4
2
5
8
1

> <PUBCHEM_MMFF94_PARTIAL_CHARGES>
14
1 -0.43
11 0.28
13 0.27
14 0.06
16 0.27
17 0.28
2 -0.43
21 0.66
25 0.06
26 0.66
3 -0.57
4 -0.57
5 -0.81
7 0.27

> <PUBCHEM_EFFECTIVE_ROTOR_COUNT>
4.6

> <PUBCHEM_PHARMACOPHORE_FEATURES>
9
1 24 hydrophobe
1 3 acceptor
1 4 acceptor
1 5 cation
5 1 8 11 14 21 rings
5 2 17 22 25 26 rings
5 5 6 7 12 13 rings
6 6 7 8 9 10 11 rings
7 5 7 9 15 16 19 20 rings

> <PUBCHEM_HEAVY_ATOM_COUNT>
27

> <PUBCHEM_ATOM_DEF_STEREO_COUNT>
10

> <PUBCHEM_ATOM_UDEF_STEREO_COUNT>
0

> <PUBCHEM_BOND_DEF_STEREO_COUNT>
0

> <PUBCHEM_BOND_UDEF_STEREO_COUNT>
0

> <PUBCHEM_ISOTOPIC_ATOM_COUNT>
0

> <PUBCHEM_COMPONENT_COUNT>
1

> <PUBCHEM_CACTVS_TAUTO_COUNT>
4

> <PUBCHEM_CONFORMER_ID>
00B0472300000003

> <PUBCHEM_MMFF94_ENERGY>
79.1733

> <PUBCHEM_FEATURE_SELFOVERLAP>
46.129

> <PUBCHEM_SHAPE_FINGERPRINT>
10162869 55 18270670980127555397
10759866 29 18263647436211856142
1100329 8 18411411826256025386
11578080 2 16517404130288635248
12236239 1 18201997716110454336
12592029 89 18341055125224324475
12616971 3 18413671292870715729
12633257 1 18259983734830312115
12788726 201 17489880331621877504
13140716 1 18340759425163091538
13583140 156 18041003998272553947
13782708 43 16805605819905573323
13836976 161 18411418388670232046
14117953 113 18197213646903442541
14178342 30 17979897626078710552
14790565 3 18340774827100664857
14955137 171 18339361851664062914
15238133 3 18131070411414944000
15475509 8 18129956563824877974
15849732 13 18339919330082070714
1601671 61 18198902522069162794
16945 1 17905319981612965810
17349148 13 17989485221238157525
17909252 39 16199327381555781230
17980427 23 18057015078581293010
1813 80 18189897514049706398
18681886 176 18341321232676252890
19319366 153 17822009788245825162
19591789 44 18412258411221793463
19784866 9 18201157650994095145
20028762 73 18202555172938731431
20465049 17 18337692865984968326
20739085 24 18335988588243844501
21421861 104 18050856507458307371
21709351 56 18338507543992622757
23558518 356 17904196280533959562
23559900 14 18338786820067338609
25147074 1 18266727147107438470
3178227 256 18262527995788484970
335352 9 18341889667466538646
338550 245 18412538821041632327
34797466 226 15792028787109778453
350125 39 18411415081619325608
3680242 22 18339641118553031362
392239 28 18412552037547890411
465052 167 18041565732650348146
474 4 18411984650581398529
484985 159 14428506503154492218
5104073 3 18343582962823280139
5312544 6 18409725205525706631
6034566 193 17027138948838142332
633830 44 18059574724054577533
7495541 125 17458631077478501170
8272917 22 18339367366264401115
9981440 41 17546149162439901384
9999458 23 18187085031434670278

> <PUBCHEM_SHAPE_MULTIPOLES>
527.19
10.73
3.68
1.25
12.47
0.49
-0.18
-1.55
2.16
-2.81
-0.69
-0.34
-0.29
-2.27

> <PUBCHEM_SHAPE_SELFOVERLAP>
1129.64

> <PUBCHEM_SHAPE_VOLUME>
292.7

> <PUBCHEM_COORDINATE_TYPE>
2
5
10

$$$$
