100781
  -OEChem-09062009403D

 60 64  0     1  0  0  0  0  0999 V2000
    3.7084    0.6643    0.8030 O   0  0  0  0  0  0  0  0  0  0  0  0
   -3.7704   -0.6972   -0.1036 O   0  0  0  0  0  0  0  0  0  0  0  0
    3.7283    2.5520    2.1066 O   0  0  0  0  0  0  0  0  0  0  0  0
   -6.0358   -0.8092    0.2327 O   0  0  0  0  0  0  0  0  0  0  0  0
   -0.8301   -1.0901   -0.2213 N   0  0  2  0  0  0  0  0  0  0  0  0
    0.7899    0.6231   -0.0653 C   0  0  1  0  0  0  0  0  0  0  0  0
    0.5708   -0.8144   -0.5306 C   0  0  1  0  0  0  0  0  0  0  0  0
    2.0332    1.2465   -0.7139 C   0  0  2  0  0  0  0  0  0  0  0  0
    1.7344   -1.7218   -0.0917 C   0  0  1  0  0  0  0  0  0  0  0  0
    3.0607   -1.1642   -0.7108 C   0  0  2  0  0  0  0  0  0  0  0  0
    3.2620    0.3571   -0.5277 C   0  0  2  0  0  0  0  0  0  0  0  0
   -0.5463    1.2650   -0.3982 C   0  0  0  0  0  0  0  0  0  0  0  0
   -1.5206    0.1784    0.0711 C   0  0  1  0  0  0  0  0  0  0  0  0
    2.4563    2.5132    0.0318 C   0  0  1  0  0  0  0  0  0  0  0  0
    1.8974   -1.8908    1.4325 C   0  0  0  0  0  0  0  0  0  0  0  0
   -1.1741   -2.2146    0.6257 C   0  0  0  0  0  0  0  0  0  0  0  0
   -2.8631    0.2757   -0.6407 C   0  0  2  0  0  0  0  0  0  0  0  0
    3.1510   -1.5138   -2.2059 C   0  0  0  0  0  0  0  0  0  0  0  0
    0.8394   -2.7677    2.0899 C   0  0  0  0  0  0  0  0  0  0  0  0
   -0.5775   -2.2149    2.0317 C   0  0  0  0  0  0  0  0  0  0  0  0
    3.3558    1.9525    1.1096 C   0  0  0  0  0  0  0  0  0  0  0  0
   -3.5616    1.5998   -0.4210 C   0  0  0  0  0  0  0  0  0  0  0  0
    3.2270    3.4984   -0.8351 C   0  0  0  0  0  0  0  0  0  0  0  0
    3.0962   -3.0105   -2.4169 C   0  0  0  0  0  0  0  0  0  0  0  0
   -5.0153    1.2260   -0.6368 C   0  0  1  0  0  0  0  0  0  0  0  0
   -5.0424   -0.1879   -0.1114 C   0  0  0  0  0  0  0  0  0  0  0  0
   -5.9735    2.1450    0.0964 C   0  0  0  0  0  0  0  0  0  0  0  0
    0.8903    0.6544    1.0280 H   0  0  0  0  0  0  0  0  0  0  0  0
    0.5792   -0.8132   -1.6289 H   0  0  0  0  0  0  0  0  0  0  0  0
    1.8390    1.4299   -1.7772 H   0  0  0  0  0  0  0  0  0  0  0  0
    1.5406   -2.7279   -0.4736 H   0  0  0  0  0  0  0  0  0  0  0  0
    3.9026   -1.6671   -0.2144 H   0  0  0  0  0  0  0  0  0  0  0  0
    4.0716    0.6839   -1.1938 H   0  0  0  0  0  0  0  0  0  0  0  0
   -0.6955    2.2094    0.1342 H   0  0  0  0  0  0  0  0  0  0  0  0
   -0.6336    1.4538   -1.4755 H   0  0  0  0  0  0  0  0  0  0  0  0
   -1.6618    0.2804    1.1551 H   0  0  0  0  0  0  0  0  0  0  0  0
    1.5992    3.0119    0.4954 H   0  0  0  0  0  0  0  0  0  0  0  0
    1.9388   -0.9279    1.9493 H   0  0  0  0  0  0  0  0  0  0  0  0
    2.8648   -2.3718    1.6291 H   0  0  0  0  0  0  0  0  0  0  0  0
   -0.8893   -3.1406    0.1098 H   0  0  0  0  0  0  0  0  0  0  0  0
   -2.2605   -2.2930    0.7251 H   0  0  0  0  0  0  0  0  0  0  0  0
   -2.7514    0.0689   -1.7136 H   0  0  0  0  0  0  0  0  0  0  0  0
    4.1123   -1.1534   -2.5941 H   0  0  0  0  0  0  0  0  0  0  0  0
    2.3769   -1.0187   -2.8004 H   0  0  0  0  0  0  0  0  0  0  0  0
    1.1124   -2.8925    3.1456 H   0  0  0  0  0  0  0  0  0  0  0  0
    0.8658   -3.7723    1.6500 H   0  0  0  0  0  0  0  0  0  0  0  0
   -1.2066   -2.8581    2.6607 H   0  0  0  0  0  0  0  0  0  0  0  0
   -0.6170   -1.2195    2.4879 H   0  0  0  0  0  0  0  0  0  0  0  0
   -3.2186    2.3812   -1.1058 H   0  0  0  0  0  0  0  0  0  0  0  0
   -3.4067    1.9561    0.6055 H   0  0  0  0  0  0  0  0  0  0  0  0
    3.5288    4.3713   -0.2461 H   0  0  0  0  0  0  0  0  0  0  0  0
    4.1401    3.0588   -1.2496 H   0  0  0  0  0  0  0  0  0  0  0  0
    2.6074    3.8488   -1.6668 H   0  0  0  0  0  0  0  0  0  0  0  0
    3.7295   -3.5509   -1.7063 H   0  0  0  0  0  0  0  0  0  0  0  0
    2.0765   -3.4010   -2.3562 H   0  0  0  0  0  0  0  0  0  0  0  0
    3.4549   -3.2509   -3.4241 H   0  0  0  0  0  0  0  0  0  0  0  0
   -5.2505    1.1935   -1.7069 H   0  0  0  0  0  0  0  0  0  0  0  0
   -5.8080    2.1180    1.1791 H   0  0  0  0  0  0  0  0  0  0  0  0
   -5.8587    3.1791   -0.2436 H   0  0  0  0  0  0  0  0  0  0  0  0
   -7.0108    1.8413   -0.0808 H   0  0  0  0  0  0  0  0  0  0  0  0
  1 11  1  0  0  0  0
  1 21  1  0  0  0  0
  2 17  1  0  0  0  0
  2 26  1  0  0  0  0
  3 21  2  0  0  0  0
  4 26  2  0  0  0  0
  5  7  1  0  0  0  0
  5 13  1  0  0  0  0
  5 16  1  0  0  0  0
  6  7  1  0  0  0  0
  6  8  1  0  0  0  0
  6 12  1  0  0  0  0
  6 28  1  0  0  0  0
  7  9  1  0  0  0  0
  7 29  1  0  0  0  0
  8 11  1  0  0  0  0
  8 14  1  0  0  0  0
  8 30  1  0  0  0  0
  9 10  1  0  0  0  0
  9 15  1  0  0  0  0
  9 31  1  0  0  0  0
 10 11  1  0  0  0  0
 10 18  1  0  0  0  0
 10 32  1  0  0  0  0
 11 33  1  0  0  0  0
 12 13  1  0  0  0  0
 12 34  1  0  0  0  0
 12 35  1  0  0  0  0
 13 17  1  0  0  0  0
 13 36  1  0  0  0  0
 14 21  1  0  0  0  0
 14 23  1  0  0  0  0
 14 37  1  0  0  0  0
 15 19  1  0  0  0  0
 15 38  1  0  0  0  0
 15 39  1  0  0  0  0
 16 20  1  0  0  0  0
 16 40  1  0  0  0  0
 16 41  1  0  0  0  0
 17 22  1  0  0  0  0
 17 42  1  0  0  0  0
 18 24  1  0  0  0  0
 18 43  1  0  0  0  0
 18 44  1  0  0  0  0
 19 20  1  0  0  0  0
 19 45  1  0  0  0  0
 19 46  1  0  0  0  0
 20 47  1  0  0  0  0
 20 48  1  0  0  0  0
 22 25  1  0  0  0  0
 22 49  1  0  0  0  0
 22 50  1  0  0  0  0
 23 51  1  0  0  0  0
 23 52  1  0  0  0  0
 23 53  1  0  0  0  0
 24 54  1  0  0  0  0
 24 55  1  0  0  0  0
 24 56  1  0  0  0  0
 25 26  1  0  0  0  0
 25 27  1  0  0  0  0
 25 57  1  0  0  0  0
 27 58  1  0  0  0  0
 27 59  1  0  0  0  0
 27 60  1  0  0  0  0
M  END
> <PUBCHEM_COMPOUND_CID>
100781

> <PUBCHEM_CONFORMER_RMSD>
0.8

> <PUBCHEM_CONFORMER_DIVERSEORDER>
1
10
8
9
4
7
5
2
6
3

> <PUBCHEM_MMFF94_PARTIAL_CHARGES>
14
1 -0.43
11 0.28
13 0.27
14 0.06
16 0.27
17 0.28
2 -0.43
21 0.66
25 0.06
26 0.66
3 -0.57
4 -0.57
5 -0.81
7 0.27

> <PUBCHEM_EFFECTIVE_ROTOR_COUNT>
4.6

> <PUBCHEM_PHARMACOPHORE_FEATURES>
9
1 24 hydrophobe
1 3 acceptor
1 4 acceptor
1 5 cation
5 1 8 11 14 21 rings
5 2 17 22 25 26 rings
5 5 6 7 12 13 rings
6 6 7 8 9 10 11 rings
7 5 7 9 15 16 19 20 rings

> <PUBCHEM_HEAVY_ATOM_COUNT>
27

> <PUBCHEM_ATOM_DEF_STEREO_COUNT>
10

> <PUBCHEM_ATOM_UDEF_STEREO_COUNT>
0

> <PUBCHEM_BOND_DEF_STEREO_COUNT>
0

> <PUBCHEM_BOND_UDEF_STEREO_COUNT>
0

> <PUBCHEM_ISOTOPIC_ATOM_COUNT>
0

> <PUBCHEM_COMPONENT_COUNT>
1

> <PUBCHEM_CACTVS_TAUTO_COUNT>
4

> <PUBCHEM_CONFORMER_ID>
000189AD00000001

> <PUBCHEM_MMFF94_ENERGY>
69.3858

> <PUBCHEM_FEATURE_SELFOVERLAP>
46.025

> <PUBCHEM_SHAPE_FINGERPRINT>
10906281 52 18337121141651114652
12160290 23 16952542539618609347
12633257 1 17751338768216364144
12788726 201 17690015440250525390
13009979 54 16628573388451098362
13140716 1 18115022030101241680
13878862 14 17535445056356678349
13955234 65 17918275346365327790
14787075 74 18266174123081569561
14849402 71 18187080642257467520
14955137 171 17972585594265342658
17349148 13 16732701666792102781
17844677 252 18201165356397701413
17909252 39 17917161498110110388
17980427 26 18261940912487758350
18186145 218 18334857169614808453
20645477 70 18342177752234004477
20691752 17 17749660848704691391
20775438 99 18270668874776663679
20832881 197 18194128421080311550
21120745 212 16749016997203512634
21197605 99 18121785199386516779
21452121 103 18271799125247064168
22149856 69 18265917898718889179
22182313 1 18191327041710233147
22393880 68 18262800658172357247
22956985 138 16372390486399360395
23558518 356 17972318679290451319
23559900 14 18059011675116253439
238 59 17987535834725408558
239999 70 18411420596267552783
2748010 2 18191606330785791422
3052486 1 17168717464772919427
34797466 226 18060698378120330967
376196 1 18198893902465672616
4340502 62 18260826042589317715
474 4 18334853956620944769
495365 180 17988080105781812468
5104073 3 18335420128738575833
513532 50 18341046333568928010
58807428 26 17969482944333950154
5895379 119 17200799895769677641
59755656 215 18343865511468409444
633830 44 18408882928300470269
6913067 236 17313648435264073759
70251023 43 18128551378799554315
9709674 26 18411425046017409639
9981440 41 17912915364856192088

> <PUBCHEM_SHAPE_MULTIPOLES>
527.19
10.27
3.67
1.77
18.28
0.73
-0.1
4.69
1.53
-3.57
-0.63
-2.35
-1.27
1.93

> <PUBCHEM_SHAPE_SELFOVERLAP>
1130.42

> <PUBCHEM_SHAPE_VOLUME>
291.6

> <PUBCHEM_COORDINATE_TYPE>
2
5
10

$$$$
