11537361
  -OEChem-09062009393D

 51 54  0     1  0  0  0  0  0999 V2000
   -2.3529   -0.2472   -1.0310 O   0  0  0  0  0  0  0  0  0  0  0  0
    3.3234   -0.7485    0.1202 O   0  0  0  0  0  0  0  0  0  0  0  0
   -3.7549    0.5404    2.1621 O   0  0  0  0  0  0  0  0  0  0  0  0
   -4.0954   -0.1285   -2.5118 O   0  0  0  0  0  0  0  0  0  0  0  0
    5.3758   -1.6595   -0.3440 O   0  0  0  0  0  0  0  0  0  0  0  0
    0.4761   -0.2254    0.4273 N   0  0  2  0  0  0  0  0  0  0  0  0
   -0.7976    0.4653    0.7417 C   0  0  2  0  0  0  0  0  0  0  0  0
   -2.1753   -0.1754    0.3980 C   0  0  1  0  0  0  0  0  0  0  0  0
    1.4457    0.7668   -0.0856 C   0  0  1  0  0  0  0  0  0  0  0  0
   -0.6081    1.8803    0.1715 C   0  0  0  0  0  0  0  0  0  0  0  0
    0.8776    2.1161    0.3108 C   0  0  0  0  0  0  0  0  0  0  0  0
   -3.3476    0.7375    0.8204 C   0  0  1  0  0  0  0  0  0  0  0  0
   -2.3230   -1.5837    1.0299 C   0  0  0  0  0  0  0  0  0  0  0  0
    0.4460   -1.4134   -0.4187 C   0  0  0  0  0  0  0  0  0  0  0  0
    2.8410    0.5516    0.4883 C   0  0  2  0  0  0  0  0  0  0  0  0
   -1.6303   -2.7191    0.2887 C   0  0  0  0  0  0  0  0  0  0  0  0
   -4.4525    0.3534   -0.1541 C   0  0  2  0  0  0  0  0  0  0  0  0
   -0.1154   -2.6393    0.2915 C   0  0  0  0  0  0  0  0  0  0  0  0
    3.8722    1.5058   -0.0735 C   0  0  0  0  0  0  0  0  0  0  0  0
   -3.6579   -0.0230   -1.3765 C   0  0  0  0  0  0  0  0  0  0  0  0
    5.1576    0.7239    0.1159 C   0  0  1  0  0  0  0  0  0  0  0  0
   -5.4201    1.4947   -0.4205 C   0  0  0  0  0  0  0  0  0  0  0  0
    4.6780   -0.6932   -0.0782 C   0  0  0  0  0  0  0  0  0  0  0  0
    6.2377    1.1205   -0.8722 C   0  0  0  0  0  0  0  0  0  0  0  0
   -0.7802    0.5721    1.8365 H   0  0  0  0  0  0  0  0  0  0  0  0
    1.4725    0.7107   -1.1839 H   0  0  0  0  0  0  0  0  0  0  0  0
   -1.1624    2.6434    0.7254 H   0  0  0  0  0  0  0  0  0  0  0  0
   -0.8992    1.9302   -0.8844 H   0  0  0  0  0  0  0  0  0  0  0  0
    1.2240    2.9271   -0.3372 H   0  0  0  0  0  0  0  0  0  0  0  0
    1.1230    2.3736    1.3487 H   0  0  0  0  0  0  0  0  0  0  0  0
   -3.1192    1.7991    0.6907 H   0  0  0  0  0  0  0  0  0  0  0  0
   -3.3837   -1.8625    1.0618 H   0  0  0  0  0  0  0  0  0  0  0  0
   -1.9907   -1.5626    2.0757 H   0  0  0  0  0  0  0  0  0  0  0  0
    1.4554   -1.6984   -0.7261 H   0  0  0  0  0  0  0  0  0  0  0  0
   -0.0820   -1.2242   -1.3607 H   0  0  0  0  0  0  0  0  0  0  0  0
    2.8223    0.5958    1.5854 H   0  0  0  0  0  0  0  0  0  0  0  0
   -1.9984   -2.7795   -0.7425 H   0  0  0  0  0  0  0  0  0  0  0  0
   -1.9202   -3.6643    0.7654 H   0  0  0  0  0  0  0  0  0  0  0  0
   -5.0093   -0.5235    0.1938 H   0  0  0  0  0  0  0  0  0  0  0  0
    0.2667   -2.6949    1.3187 H   0  0  0  0  0  0  0  0  0  0  0  0
    0.2645   -3.5344   -0.2182 H   0  0  0  0  0  0  0  0  0  0  0  0
    3.8822    2.4714    0.4411 H   0  0  0  0  0  0  0  0  0  0  0  0
    3.6911    1.6921   -1.1399 H   0  0  0  0  0  0  0  0  0  0  0  0
    5.5194    0.8201    1.1462 H   0  0  0  0  0  0  0  0  0  0  0  0
   -4.9107    2.3605   -0.8582 H   0  0  0  0  0  0  0  0  0  0  0  0
   -6.1964    1.1840   -1.1280 H   0  0  0  0  0  0  0  0  0  0  0  0
   -5.9110    1.8148    0.5041 H   0  0  0  0  0  0  0  0  0  0  0  0
   -2.9998    0.7638    2.7321 H   0  0  0  0  0  0  0  0  0  0  0  0
    5.9217    0.9439   -1.9062 H   0  0  0  0  0  0  0  0  0  0  0  0
    6.4928    2.1797   -0.7665 H   0  0  0  0  0  0  0  0  0  0  0  0
    7.1469    0.5328   -0.7061 H   0  0  0  0  0  0  0  0  0  0  0  0
  1  8  1  0  0  0  0
  1 20  1  0  0  0  0
  2 15  1  0  0  0  0
  2 23  1  0  0  0  0
  3 12  1  0  0  0  0
  3 48  1  0  0  0  0
  4 20  2  0  0  0  0
  5 23  2  0  0  0  0
  6  7  1  0  0  0  0
  6  9  1  0  0  0  0
  6 14  1  0  0  0  0
  7  8  1  0  0  0  0
  7 10  1  0  0  0  0
  7 25  1  0  0  0  0
  8 12  1  0  0  0  0
  8 13  1  0  0  0  0
  9 11  1  0  0  0  0
  9 15  1  0  0  0  0
  9 26  1  0  0  0  0
 10 11  1  0  0  0  0
 10 27  1  0  0  0  0
 10 28  1  0  0  0  0
 11 29  1  0  0  0  0
 11 30  1  0  0  0  0
 12 17  1  0  0  0  0
 12 31  1  0  0  0  0
 13 16  1  0  0  0  0
 13 32  1  0  0  0  0
 13 33  1  0  0  0  0
 14 18  1  0  0  0  0
 14 34  1  0  0  0  0
 14 35  1  0  0  0  0
 15 19  1  0  0  0  0
 15 36  1  0  0  0  0
 16 18  1  0  0  0  0
 16 37  1  0  0  0  0
 16 38  1  0  0  0  0
 17 20  1  0  0  0  0
 17 22  1  0  0  0  0
 17 39  1  0  0  0  0
 18 40  1  0  0  0  0
 18 41  1  0  0  0  0
 19 21  1  0  0  0  0
 19 42  1  0  0  0  0
 19 43  1  0  0  0  0
 21 23  1  0  0  0  0
 21 24  1  0  0  0  0
 21 44  1  0  0  0  0
 22 45  1  0  0  0  0
 22 46  1  0  0  0  0
 22 47  1  0  0  0  0
 24 49  1  0  0  0  0
 24 50  1  0  0  0  0
 24 51  1  0  0  0  0
M  END
> <PUBCHEM_COMPOUND_CID>
11537361

> <PUBCHEM_CONFORMER_RMSD>
0.6

> <PUBCHEM_CONFORMER_DIVERSEORDER>
1
15
23
9
3
19
12
29
11
14
30
17
24
20
5
13
4
21
7
6
10
27
8
25
18
2
28
16
26
22

> <PUBCHEM_MMFF94_PARTIAL_CHARGES>
17
1 -0.43
12 0.28
14 0.27
15 0.28
17 0.06
2 -0.43
20 0.66
21 0.06
23 0.66
3 -0.68
4 -0.57
48 0.4
5 -0.57
6 -0.81
7 0.27
8 0.28
9 0.27

> <PUBCHEM_EFFECTIVE_ROTOR_COUNT>
3.8

> <PUBCHEM_PHARMACOPHORE_FEATURES>
9
1 3 acceptor
1 3 donor
1 4 acceptor
1 5 acceptor
1 6 cation
5 1 8 12 17 20 rings
5 2 15 19 21 23 rings
5 6 7 9 10 11 rings
7 6 7 8 13 14 16 18 rings

> <PUBCHEM_HEAVY_ATOM_COUNT>
24

> <PUBCHEM_ATOM_DEF_STEREO_COUNT>
7

> <PUBCHEM_ATOM_UDEF_STEREO_COUNT>
0

> <PUBCHEM_BOND_DEF_STEREO_COUNT>
0

> <PUBCHEM_BOND_UDEF_STEREO_COUNT>
0

> <PUBCHEM_ISOTOPIC_ATOM_COUNT>
0

> <PUBCHEM_COMPONENT_COUNT>
1

> <PUBCHEM_CACTVS_TAUTO_COUNT>
4

> <PUBCHEM_CONFORMER_ID>
00B00BD100000001

> <PUBCHEM_MMFF94_ENERGY>
57.0645

> <PUBCHEM_FEATURE_SELFOVERLAP>
45.699

> <PUBCHEM_SHAPE_FINGERPRINT>
10366900 7 17561086912702904440
105312 117 17895184498470304695
107951 10 17385724703239991675
10906281 52 18271544025543367680
11315181 36 17418095446896132512
12011746 2 18343305864318211404
12236239 1 17917991663996713113
12555020 224 18410851057834585086
12760667 363 18270963424049813370
12788726 201 18130793300383930624
12969540 114 18187914088792209494
13140716 1 18267878352702905793
13583140 156 17022901276326515153
13675066 3 17676493881952220904
14790565 3 18338240353634760745
15099037 51 18409164415624109580
15163728 17 16445569569617809221
15196674 1 18410577314226203682
15209289 33 18202283597723675769
15880784 105 16271927151476062728
16752209 62 18337096870458349400
17349148 13 18131351929351740490
18222031 100 16989127561151684976
19489759 90 14979960250615732337
200 152 17846777420846393304
20775438 99 16261465495801451567
21033648 144 18340198717304171388
21033648 29 18113886174175896581
21033650 10 17130177284770654400
21279426 13 18338237068179503534
21521239 73 18129925867545868679
23402539 116 18343861108572841429
23559900 14 18341047540797701168
25 1 18335691720620861343
300161 21 18411698812060469840
3004659 81 18333733490807574098
335352 9 18410294683992772902
34797466 226 16081666503769558894
34934 24 18260826021024680634
350125 39 18191875724177721651
3759504 43 17749108919511017635
404807 14 14757638797463132118
5104073 3 18338518646741624338
59755656 520 18409163316851311087
9709674 26 18200884989527938430

> <PUBCHEM_SHAPE_MULTIPOLES>
459.58
12.05
2.3
1.26
10.76
1.19
0.3
-3.3
2.9
0
-0.22
-1.82
-0.07
0.09

> <PUBCHEM_SHAPE_SELFOVERLAP>
979.344

> <PUBCHEM_SHAPE_VOLUME>
256.8

> <PUBCHEM_COORDINATE_TYPE>
2
5
10

$$$$
