5282737
  -OEChem-09062010103D

 39 38  0     0  0  0  0  0  0999 V2000
   -7.6097   -0.6958   -0.1653 O   0  0  0  0  0  0  0  0  0  0  0  0
   -6.6089    1.3419   -0.1769 O   0  0  0  0  0  0  0  0  0  0  0  0
   -0.1451   -0.4622    0.2054 C   0  0  0  0  0  0  0  0  0  0  0  0
    1.1243    0.3956    0.1787 C   0  0  0  0  0  0  0  0  0  0  0  0
   -1.4679    0.3039    0.1110 C   0  0  0  0  0  0  0  0  0  0  0  0
    2.4482   -0.3736    0.2174 C   0  0  0  0  0  0  0  0  0  0  0  0
   -2.6978   -0.6069    0.0932 C   0  0  0  0  0  0  0  0  0  0  0  0
    3.6794    0.5313    0.1384 C   0  0  0  0  0  0  0  0  0  0  0  0
    4.9722   -0.2870    0.1882 C   0  0  0  0  0  0  0  0  0  0  0  0
   -3.9901    0.2124    0.0042 C   0  0  0  0  0  0  0  0  0  0  0  0
    6.2038    0.6135    0.0707 C   0  0  0  0  0  0  0  0  0  0  0  0
   -5.2386   -0.6687   -0.0490 C   0  0  0  0  0  0  0  0  0  0  0  0
    7.4716   -0.1843    0.1524 C   0  0  0  0  0  0  0  0  0  0  0  0
   -6.5246    0.1222   -0.1436 C   0  0  0  0  0  0  0  0  0  0  0  0
    8.3833   -0.2421   -0.8248 C   0  0  0  0  0  0  0  0  0  0  0  0
   -0.1457   -1.0578    1.1270 H   0  0  0  0  0  0  0  0  0  0  0  0
   -0.0960   -1.1785   -0.6246 H   0  0  0  0  0  0  0  0  0  0  0  0
    1.1053    1.0131   -0.7284 H   0  0  0  0  0  0  0  0  0  0  0  0
    1.0942    1.0918    1.0263 H   0  0  0  0  0  0  0  0  0  0  0  0
   -1.4591    0.9171   -0.7986 H   0  0  0  0  0  0  0  0  0  0  0  0
   -1.5386    0.9963    0.9588 H   0  0  0  0  0  0  0  0  0  0  0  0
    2.4694   -1.0864   -0.6163 H   0  0  0  0  0  0  0  0  0  0  0  0
    2.4882   -0.9651    1.1403 H   0  0  0  0  0  0  0  0  0  0  0  0
   -2.7142   -1.2224    1.0005 H   0  0  0  0  0  0  0  0  0  0  0  0
   -2.6356   -1.2902   -0.7621 H   0  0  0  0  0  0  0  0  0  0  0  0
    3.6633    1.2467    0.9693 H   0  0  0  0  0  0  0  0  0  0  0  0
    3.6456    1.1127   -0.7908 H   0  0  0  0  0  0  0  0  0  0  0  0
    4.9735   -1.0215   -0.6272 H   0  0  0  0  0  0  0  0  0  0  0  0
    5.0105   -0.8517    1.1284 H   0  0  0  0  0  0  0  0  0  0  0  0
   -3.9592    0.8503   -0.8882 H   0  0  0  0  0  0  0  0  0  0  0  0
   -4.0567    0.8874    0.8669 H   0  0  0  0  0  0  0  0  0  0  0  0
    6.2046    1.3485    0.8844 H   0  0  0  0  0  0  0  0  0  0  0  0
    6.1595    1.1783   -0.8685 H   0  0  0  0  0  0  0  0  0  0  0  0
   -5.2884   -1.2854    0.8555 H   0  0  0  0  0  0  0  0  0  0  0  0
   -5.1849   -1.3275   -0.9230 H   0  0  0  0  0  0  0  0  0  0  0  0
    7.6565   -0.7363    1.0703 H   0  0  0  0  0  0  0  0  0  0  0  0
    9.2837   -0.8339   -0.7013 H   0  0  0  0  0  0  0  0  0  0  0  0
    8.2499    0.2938   -1.7580 H   0  0  0  0  0  0  0  0  0  0  0  0
   -8.4481   -0.1891   -0.2164 H   0  0  0  0  0  0  0  0  0  0  0  0
  1 14  1  0  0  0  0
  1 39  1  0  0  0  0
  2 14  2  0  0  0  0
  3  4  1  0  0  0  0
  3  5  1  0  0  0  0
  3 16  1  0  0  0  0
  3 17  1  0  0  0  0
  4  6  1  0  0  0  0
  4 18  1  0  0  0  0
  4 19  1  0  0  0  0
  5  7  1  0  0  0  0
  5 20  1  0  0  0  0
  5 21  1  0  0  0  0
  6  8  1  0  0  0  0
  6 22  1  0  0  0  0
  6 23  1  0  0  0  0
  7 10  1  0  0  0  0
  7 24  1  0  0  0  0
  7 25  1  0  0  0  0
  8  9  1  0  0  0  0
  8 26  1  0  0  0  0
  8 27  1  0  0  0  0
  9 11  1  0  0  0  0
  9 28  1  0  0  0  0
  9 29  1  0  0  0  0
 10 12  1  0  0  0  0
 10 30  1  0  0  0  0
 10 31  1  0  0  0  0
 11 13  1  0  0  0  0
 11 32  1  0  0  0  0
 11 33  1  0  0  0  0
 12 14  1  0  0  0  0
 12 34  1  0  0  0  0
 12 35  1  0  0  0  0
 13 15  2  0  0  0  0
 13 36  1  0  0  0  0
 15 37  1  0  0  0  0
 15 38  1  0  0  0  0
M  END
> <PUBCHEM_COMPOUND_CID>
5282737

> <PUBCHEM_CONFORMER_RMSD>
1.2

> <PUBCHEM_CONFORMER_DIVERSEORDER>
1
41
5
13
25
32
2
36
40
10
31
27
39
4
19
3
16
20
11
23
42
22
44
38
9
35
18
30
8
15
17
6
7
33
14
28
29
37
43
21
24
26
34
12

> <PUBCHEM_MMFF94_PARTIAL_CHARGES>
11
1 -0.65
11 0.14
12 0.06
13 -0.29
14 0.66
15 -0.3
2 -0.57
36 0.15
37 0.15
38 0.15
39 0.5

> <PUBCHEM_EFFECTIVE_ROTOR_COUNT>
11

> <PUBCHEM_PHARMACOPHORE_FEATURES>
4
1 1 acceptor
1 15 hydrophobe
1 2 acceptor
3 1 2 14 anion

> <PUBCHEM_HEAVY_ATOM_COUNT>
15

> <PUBCHEM_ATOM_DEF_STEREO_COUNT>
0

> <PUBCHEM_ATOM_UDEF_STEREO_COUNT>
0

> <PUBCHEM_BOND_DEF_STEREO_COUNT>
0

> <PUBCHEM_BOND_UDEF_STEREO_COUNT>
0

> <PUBCHEM_ISOTOPIC_ATOM_COUNT>
0

> <PUBCHEM_COMPONENT_COUNT>
1

> <PUBCHEM_CACTVS_TAUTO_COUNT>
1

> <PUBCHEM_CONFORMER_ID>
00509BB100000001

> <PUBCHEM_MMFF94_ENERGY>
2.445

> <PUBCHEM_FEATURE_SELFOVERLAP>
20.356

> <PUBCHEM_SHAPE_FINGERPRINT>
10066227 49 17417539008334925550
10968037 39 18040714771185835179
11315181 36 17846221085242822099
11638347 137 10591770862241344020
12091667 2 18410573994643491875
13533116 47 16877929513475206472
13964095 4 18412825780881204657
14123256 10 16415481549365719054
14251764 18 17967529060563173472
14251764 46 18410575084668386147
17834076 25 18410292518764675082
18006028 8 15985385590387040272
20621476 8 18411136922747497886
20735858 18 10592045752484368312
21130983 4 16081090381362170852
21315763 28 18341612633169416281
220451 1 16660637479842394858
22224240 67 10303810978249378260
23035841 295 12823294602254746853
23521765 1 18341894095134299626
246663 6 17489873743399987758
28498 318 18060703867014760150
33532 11 16558755586083742230
33684 2 18060419114619332203
42788 4 18410009945020128729
57583515 80 18408887343241974771
59567204 34 18270681962143342409
59682541 35 11241978083120661924
59755656 520 18261667155588682455
8209 1 18410573989446418434

> <PUBCHEM_SHAPE_MULTIPOLES>
296.95
26.73
0.88
0.67
6.29
0.09
-0.03
-0.19
-4.12
-0.66
-0.01
0.46
-0.02
0.17

> <PUBCHEM_SHAPE_SELFOVERLAP>
541.689

> <PUBCHEM_SHAPE_VOLUME>
188.3

> <PUBCHEM_COORDINATE_TYPE>
2
5
10

$$$$
