120521
  -OEChem-09122006443D

 24 25  0     0  0  0  0  0  0999 V2000
    0.8809   -1.1106    0.1364 O   0  0  0  0  0  0  0  0  0  0  0  0
    3.0803    2.2545   -0.2684 O   0  0  0  0  0  0  0  0  0  0  0  0
    0.2586    0.1185   -0.0234 C   0  0  0  0  0  0  0  0  0  0  0  0
   -1.2163    0.0613   -0.0129 C   0  0  0  0  0  0  0  0  0  0  0  0
    2.2647   -1.1704    0.1469 C   0  0  0  0  0  0  0  0  0  0  0  0
    0.9351    1.2697   -0.1574 C   0  0  0  0  0  0  0  0  0  0  0  0
   -1.9585    1.1416    0.4729 C   0  0  0  0  0  0  0  0  0  0  0  0
   -1.8795   -1.0730   -0.4893 C   0  0  0  0  0  0  0  0  0  0  0  0
    3.0462   -0.0898    0.0155 C   0  0  0  0  0  0  0  0  0  0  0  0
    2.4129    1.2341   -0.1479 C   0  0  0  0  0  0  0  0  0  0  0  0
   -3.3523    1.0880    0.4824 C   0  0  0  0  0  0  0  0  0  0  0  0
   -3.2734   -1.1268   -0.4800 C   0  0  0  0  0  0  0  0  0  0  0  0
    2.8110   -2.5508    0.3192 C   0  0  0  0  0  0  0  0  0  0  0  0
   -4.0097   -0.0462    0.0059 C   0  0  0  0  0  0  0  0  0  0  0  0
    0.4688    2.2381   -0.2936 H   0  0  0  0  0  0  0  0  0  0  0  0
   -1.4827    2.0342    0.8706 H   0  0  0  0  0  0  0  0  0  0  0  0
   -1.3309   -1.9262   -0.8809 H   0  0  0  0  0  0  0  0  0  0  0  0
    4.1282   -0.1444    0.0251 H   0  0  0  0  0  0  0  0  0  0  0  0
   -3.9261    1.9272    0.8648 H   0  0  0  0  0  0  0  0  0  0  0  0
   -3.7858   -2.0091   -0.8524 H   0  0  0  0  0  0  0  0  0  0  0  0
    2.4698   -3.1966   -0.4962 H   0  0  0  0  0  0  0  0  0  0  0  0
    2.4659   -2.9784    1.2661 H   0  0  0  0  0  0  0  0  0  0  0  0
    3.9059   -2.5637    0.3232 H   0  0  0  0  0  0  0  0  0  0  0  0
   -5.0949   -0.0883    0.0138 H   0  0  0  0  0  0  0  0  0  0  0  0
  1  3  1  0  0  0  0
  1  5  1  0  0  0  0
  2 10  2  0  0  0  0
  3  4  1  0  0  0  0
  3  6  2  0  0  0  0
  4  7  2  0  0  0  0
  4  8  1  0  0  0  0
  5  9  2  0  0  0  0
  5 13  1  0  0  0  0
  6 10  1  0  0  0  0
  6 15  1  0  0  0  0
  7 11  1  0  0  0  0
  7 16  1  0  0  0  0
  8 12  2  0  0  0  0
  8 17  1  0  0  0  0
  9 10  1  0  0  0  0
  9 18  1  0  0  0  0
 11 14  2  0  0  0  0
 11 19  1  0  0  0  0
 12 14  1  0  0  0  0
 12 20  1  0  0  0  0
 13 21  1  0  0  0  0
 13 22  1  0  0  0  0
 13 23  1  0  0  0  0
 14 24  1  0  0  0  0
M  END
> <PUBCHEM_COMPOUND_CID>
120521

> <PUBCHEM_CONFORMER_RMSD>
0.4

> <PUBCHEM_CONFORMER_DIVERSEORDER>
1
2
3

> <PUBCHEM_MMFF94_PARTIAL_CHARGES>
21
1 -0.15
10 0.54
11 -0.15
12 -0.15
13 0.14
14 -0.15
15 0.15
16 0.15
17 0.15
18 0.15
19 0.15
2 -0.57
20 0.15
24 0.15
3 0.05
4 0.03
5 -0.06
6 -0.14
7 -0.15
8 -0.15
9 -0.14

> <PUBCHEM_EFFECTIVE_ROTOR_COUNT>
1

> <PUBCHEM_PHARMACOPHORE_FEATURES>
4
1 1 acceptor
1 2 acceptor
6 1 3 5 6 9 10 rings
6 4 7 8 11 12 14 rings

> <PUBCHEM_HEAVY_ATOM_COUNT>
14

> <PUBCHEM_ATOM_DEF_STEREO_COUNT>
0

> <PUBCHEM_ATOM_UDEF_STEREO_COUNT>
0

> <PUBCHEM_BOND_DEF_STEREO_COUNT>
0

> <PUBCHEM_BOND_UDEF_STEREO_COUNT>
0

> <PUBCHEM_ISOTOPIC_ATOM_COUNT>
0

> <PUBCHEM_COMPONENT_COUNT>
1

> <PUBCHEM_CACTVS_TAUTO_COUNT>
3

> <PUBCHEM_CONFORMER_ID>
0001D6C900000001

> <PUBCHEM_MMFF94_ENERGY>
35.3978

> <PUBCHEM_FEATURE_SELFOVERLAP>
20.297

> <PUBCHEM_SHAPE_FINGERPRINT>
10608611 8 18407755928555380621
10616163 171 18270963552297881119
10980938 120 18410012147842687224
11471102 20 18408037407773875852
11769659 78 18341324518326149295
12251169 10 18341048523469141570
12346645 44 18340206417969230900
12553582 1 18047465621935596266
12932764 1 17530959142655097299
13380535 76 18261954179931463426
14144814 61 18412826876161123259
14251717 144 18408599270984740974
14325111 11 18411983576517918369
15279307 12 18341894151043085070
15375462 189 18201163243004617283
15442244 35 18267868276540693936
15501101 241 18187365406989170860
15536298 74 18343584040627929454
15669948 3 17774436196027217383
15775835 57 18342464780456027637
16945 1 18337393854271620376
18186145 218 17603865581244757619
19050596 39 18412824707107699889
19422 9 18342176657117771699
200 152 18272638057362229287
201361 129 18411705412934703656
20279233 1 16370720456958594609
20559304 39 18341892978727730368
20645477 70 18408879620959809519
20871998 22 18124595272002770886
21267235 1 18412272730822437703
21499 59 18117841225175525388
21501502 16 18341894091150549197
21501925 9 18338786845478647546
21524375 3 18196654214670823372
221490 88 18335711558616392050
22445834 79 18411419479692171563
2255824 54 18335141981839428774
22854114 111 18409732888937303968
22959321 4 18409449172219740979
23402655 69 18411418401776875157
23463225 33 18341049623075734439
23552423 10 18410011048082957711
23559900 14 18270673182358932610
2748010 2 17044583340741406997
3312278 4 18268431420168596083
474 4 18115873077744746332
5104073 3 18411983555290833819
57096353 35 18270115863244708829
581208 293 18336542802370578424
603831 33 18057874930379961391
6992083 37 17909841928818385736
7364860 26 18341894087066643430
74978 22 18411137996136036855
77492 1 18202563977662943721
84936 182 18200593730241577656
9709674 26 18410578400584261315
9939556 21 18341611486497271371

> <PUBCHEM_SHAPE_MULTIPOLES>
276.37
6.8
2.12
0.69
2.58
0.26
0
0.36
0.12
-1.99
0.02
0.14
0.02
-0.79

> <PUBCHEM_SHAPE_SELFOVERLAP>
594.132

> <PUBCHEM_SHAPE_VOLUME>
152.4

> <PUBCHEM_COORDINATE_TYPE>
2
5
10

$$$$
