5320313
  -OEChem-09122005033D

 51 54  0     1  0  0  0  0  0999 V2000
   -3.0743    0.0180   -0.6033 O   0  0  0  0  0  0  0  0  0  0  0  0
   -2.2332    0.7527    1.4453 O   0  0  0  0  0  0  0  0  0  0  0  0
   -6.3782   -1.6287    1.1966 O   0  0  0  0  0  0  0  0  0  0  0  0
   -5.6678   -2.4095   -1.4945 O   0  0  0  0  0  0  0  0  0  0  0  0
   -3.9587   -1.0526    2.7762 O   0  0  0  0  0  0  0  0  0  0  0  0
   -2.4093   -0.3538   -3.2444 O   0  0  0  0  0  0  0  0  0  0  0  0
    2.2709   -0.3592    0.4594 O   0  0  0  0  0  0  0  0  0  0  0  0
   -1.8377    3.3340    0.5321 O   0  0  0  0  0  0  0  0  0  0  0  0
    0.6005    4.0986   -0.4256 O   0  0  0  0  0  0  0  0  0  0  0  0
    3.0620    3.3889   -0.9281 O   0  0  0  0  0  0  0  0  0  0  0  0
   -5.0403   -1.6238    0.6961 C   0  0  1  0  0  0  0  0  0  0  0  0
   -5.0957   -1.3054   -0.7983 C   0  0  1  0  0  0  0  0  0  0  0  0
   -4.2171   -0.5819    1.4537 C   0  0  2  0  0  0  0  0  0  0  0  0
   -3.6934   -1.0325   -1.3477 C   0  0  1  0  0  0  0  0  0  0  0  0
   -2.8762   -0.3255    0.7661 C   0  0  1  0  0  0  0  0  0  0  0  0
   -3.7344   -0.5980   -2.8094 C   0  0  0  0  0  0  0  0  0  0  0  0
   -1.0139    1.1351    0.9674 C   0  0  0  0  0  0  0  0  0  0  0  0
    0.0316    0.2115    0.9440 C   0  0  0  0  0  0  0  0  0  0  0  0
   -0.8098    2.4360    0.5052 C   0  0  0  0  0  0  0  0  0  0  0  0
    1.2823    0.5919    0.4570 C   0  0  0  0  0  0  0  0  0  0  0  0
    1.4844    1.8918   -0.0040 C   0  0  0  0  0  0  0  0  0  0  0  0
    0.4404    2.8195    0.0179 C   0  0  0  0  0  0  0  0  0  0  0  0
    2.8133    2.2662   -0.5110 C   0  0  0  0  0  0  0  0  0  0  0  0
    3.5224   -0.0121   -0.0263 C   0  0  0  0  0  0  0  0  0  0  0  0
    3.8418    1.2065   -0.4903 C   0  0  0  0  0  0  0  0  0  0  0  0
    4.5116   -1.1073    0.0271 C   0  0  0  0  0  0  0  0  0  0  0  0
    5.8670   -0.8207    0.2080 C   0  0  0  0  0  0  0  0  0  0  0  0
    4.0966   -2.4351   -0.1031 C   0  0  0  0  0  0  0  0  0  0  0  0
    6.8013   -1.8553    0.2583 C   0  0  0  0  0  0  0  0  0  0  0  0
    5.0308   -3.4696   -0.0525 C   0  0  0  0  0  0  0  0  0  0  0  0
    6.3833   -3.1797    0.1282 C   0  0  0  0  0  0  0  0  0  0  0  0
   -4.6414   -2.6310    0.8691 H   0  0  0  0  0  0  0  0  0  0  0  0
   -5.7493   -0.4399   -0.9624 H   0  0  0  0  0  0  0  0  0  0  0  0
   -4.7849    0.3508    1.5543 H   0  0  0  0  0  0  0  0  0  0  0  0
   -3.0611   -1.9282   -1.2781 H   0  0  0  0  0  0  0  0  0  0  0  0
   -2.2508   -1.2250    0.8376 H   0  0  0  0  0  0  0  0  0  0  0  0
   -4.1705   -1.3702   -3.4496 H   0  0  0  0  0  0  0  0  0  0  0  0
   -4.3037    0.3288   -2.9362 H   0  0  0  0  0  0  0  0  0  0  0  0
   -6.8773   -2.2897    0.6868 H   0  0  0  0  0  0  0  0  0  0  0  0
   -5.0906   -3.1806   -1.3606 H   0  0  0  0  0  0  0  0  0  0  0  0
   -3.4562   -1.8825    2.7085 H   0  0  0  0  0  0  0  0  0  0  0  0
   -2.0296    0.3278   -2.6637 H   0  0  0  0  0  0  0  0  0  0  0  0
   -0.1090   -0.7988    1.3189 H   0  0  0  0  0  0  0  0  0  0  0  0
    4.8173    1.4718   -0.8808 H   0  0  0  0  0  0  0  0  0  0  0  0
   -1.5153    4.1797    0.1750 H   0  0  0  0  0  0  0  0  0  0  0  0
    1.5056    4.2423   -0.7409 H   0  0  0  0  0  0  0  0  0  0  0  0
    6.2304    0.1955    0.3355 H   0  0  0  0  0  0  0  0  0  0  0  0
    3.0502   -2.6893   -0.2532 H   0  0  0  0  0  0  0  0  0  0  0  0
    7.8539   -1.6305    0.4039 H   0  0  0  0  0  0  0  0  0  0  0  0
    4.7059   -4.5008   -0.1556 H   0  0  0  0  0  0  0  0  0  0  0  0
    7.1106   -3.9852    0.1684 H   0  0  0  0  0  0  0  0  0  0  0  0
  1 14  1  0  0  0  0
  1 15  1  0  0  0  0
  2 15  1  0  0  0  0
  2 17  1  0  0  0  0
  3 11  1  0  0  0  0
  3 39  1  0  0  0  0
  4 12  1  0  0  0  0
  4 40  1  0  0  0  0
  5 13  1  0  0  0  0
  5 41  1  0  0  0  0
  6 16  1  0  0  0  0
  6 42  1  0  0  0  0
  7 20  1  0  0  0  0
  7 24  1  0  0  0  0
  8 19  1  0  0  0  0
  8 45  1  0  0  0  0
  9 22  1  0  0  0  0
  9 46  1  0  0  0  0
 10 23  2  0  0  0  0
 11 12  1  0  0  0  0
 11 13  1  0  0  0  0
 11 32  1  0  0  0  0
 12 14  1  0  0  0  0
 12 33  1  0  0  0  0
 13 15  1  0  0  0  0
 13 34  1  0  0  0  0
 14 16  1  0  0  0  0
 14 35  1  0  0  0  0
 15 36  1  0  0  0  0
 16 37  1  0  0  0  0
 16 38  1  0  0  0  0
 17 18  1  0  0  0  0
 17 19  2  0  0  0  0
 18 20  2  0  0  0  0
 18 43  1  0  0  0  0
 19 22  1  0  0  0  0
 20 21  1  0  0  0  0
 21 22  2  0  0  0  0
 21 23  1  0  0  0  0
 23 25  1  0  0  0  0
 24 25  2  0  0  0  0
 24 26  1  0  0  0  0
 25 44  1  0  0  0  0
 26 27  2  0  0  0  0
 26 28  1  0  0  0  0
 27 29  1  0  0  0  0
 27 47  1  0  0  0  0
 28 30  2  0  0  0  0
 28 48  1  0  0  0  0
 29 31  2  0  0  0  0
 29 49  1  0  0  0  0
 30 31  1  0  0  0  0
 30 50  1  0  0  0  0
 31 51  1  0  0  0  0
M  END
> <PUBCHEM_COMPOUND_CID>
5320313

> <PUBCHEM_CONFORMER_RMSD>
0.8

> <PUBCHEM_CONFORMER_DIVERSEORDER>
1
24
61
81
104
92
70
29
36
79
8
57
89
99
54
21
25
63
60
47
107
83
86
67
98
72
100
4
10
103
101
69
15
37
34
96
82
91
39
73
105
9
88
3
48
95
6
49
75
66
40
38
84
7
102
55
50
94
5
17
44
68
2
41
59
43
78
62
26
85
45
58
106
52
64
28
80
20
46
51
87
33
42
31
65
90
32
27
97
76
56
22
53
35
30
74
14
16
93
13
19
18
77
71
12
11
23

> <PUBCHEM_MMFF94_PARTIAL_CHARGES>
44
1 -0.56
10 -0.57
11 0.28
12 0.28
13 0.28
14 0.28
15 0.56
16 0.28
17 0.08
18 -0.15
19 0.08
2 -0.36
20 0.08
21 0.09
22 0.08
23 0.47
24 0.05
25 -0.14
26 0.03
27 -0.15
28 -0.15
29 -0.15
3 -0.68
30 -0.15
31 -0.15
39 0.4
4 -0.68
40 0.4
41 0.4
42 0.4
43 0.15
44 0.15
45 0.45
46 0.45
47 0.15
48 0.15
49 0.15
5 -0.68
50 0.15
51 0.15
6 -0.68
7 -0.16
8 -0.53
9 -0.53

> <PUBCHEM_EFFECTIVE_ROTOR_COUNT>
5.2

> <PUBCHEM_PHARMACOPHORE_FEATURES>
18
1 1 acceptor
1 10 acceptor
1 2 acceptor
1 3 acceptor
1 3 donor
1 4 acceptor
1 4 donor
1 5 acceptor
1 5 donor
1 6 acceptor
1 6 donor
1 7 acceptor
1 8 donor
1 9 donor
6 1 11 12 13 14 15 rings
6 17 18 19 20 21 22 rings
6 26 27 28 29 30 31 rings
6 7 20 21 23 24 25 rings

> <PUBCHEM_HEAVY_ATOM_COUNT>
31

> <PUBCHEM_ATOM_DEF_STEREO_COUNT>
5

> <PUBCHEM_ATOM_UDEF_STEREO_COUNT>
0

> <PUBCHEM_BOND_DEF_STEREO_COUNT>
0

> <PUBCHEM_BOND_UDEF_STEREO_COUNT>
0

> <PUBCHEM_ISOTOPIC_ATOM_COUNT>
0

> <PUBCHEM_COMPONENT_COUNT>
1

> <PUBCHEM_CACTVS_TAUTO_COUNT>
10

> <PUBCHEM_CONFORMER_ID>
00512E7900000001

> <PUBCHEM_MMFF94_ENERGY>
103.2207

> <PUBCHEM_FEATURE_SELFOVERLAP>
91.45

> <PUBCHEM_SHAPE_FINGERPRINT>
10319926 262 15051742996658324550
10622 236 18413102836194454734
10670039 82 14779258696437244630
11135926 11 18191596456941022500
11227688 84 18047195151139890514
11410812 94 16153981336943376534
11497681 19 18271529690171785102
12107183 9 18269009600382420753
12166972 35 17895199904560160942
12342043 65 17315943197567049955
12422481 6 17346325830046130142
12633257 1 15913042144600325043
13540713 5 18265639639950808208
13583140 156 15338546121081497200
13782708 43 17749107841859497731
13911987 19 17684386322398878084
14347332 77 18410579448571612288
1454969 45 18410014352194612140
15183329 4 15719390608135907042
15320294 125 17561083627121904503
15361156 5 17974032569574818298
17492 89 18410016503234846760
1813 80 18273224105059262677
19315092 285 17704068538407617032
19319366 153 17908427201199391324
20028762 73 18272371958348326566
20554085 129 15338291039375646683
21033650 10 15791728568505716412
21703447 108 18336536171484730872
22393880 68 17458336446658299274
23536364 44 17968650523705495573
23559900 14 18187369882419037592
23569914 152 17976787958408881039
2838139 119 12540703625990961838
314194 84 18340775947701474984
34797466 226 16443915006244176135
3882209 13 17175429721600498498
4015057 19 18262244429310024107
46194498 28 17313669381302618388
463206 1 18201997784909662870
513202 73 18341332176131583903
613672 6 18261944198643667744
6431902 208 18410292467747904674
70251023 43 18408041810184283680
7970288 3 18412261765671211019
86090 222 14383174325572188294

> <PUBCHEM_SHAPE_MULTIPOLES>
579.27
15.49
4.16
1.83
5.52
2.48
-0.93
-18.46
0.12
3.66
-0.45
-4
-0.64
-1.07

> <PUBCHEM_SHAPE_SELFOVERLAP>
1271.897

> <PUBCHEM_SHAPE_VOLUME>
308.8

> <PUBCHEM_COORDINATE_TYPE>
2
5
10

$$$$
