101876630
  -OEChem-09122005273D

 52 55  0     1  0  0  0  0  0999 V2000
    2.3991    0.0116   -0.2448 O   0  0  0  0  0  0  0  0  0  0  0  0
    0.7610    0.5737    1.3188 O   0  0  0  0  0  0  0  0  0  0  0  0
    4.4554    3.4951    0.4644 O   0  0  0  0  0  0  0  0  0  0  0  0
    4.9977    1.9673   -1.9288 O   0  0  0  0  0  0  0  0  0  0  0  0
    1.6142    3.2697    1.2105 O   0  0  0  0  0  0  0  0  0  0  0  0
    4.7444   -1.3496   -0.8246 O   0  0  0  0  0  0  0  0  0  0  0  0
   -1.8250   -1.6612   -0.0618 O   0  0  0  0  0  0  0  0  0  0  0  0
   -1.4530    2.2374    1.0632 O   0  0  0  0  0  0  0  0  0  0  0  0
   -3.9297    2.6738    0.3995 O   0  0  0  0  0  0  0  0  0  0  0  0
   -6.2350    1.6184   -0.6061 O   0  0  0  0  0  0  0  0  0  0  0  0
   -6.3497   -1.0463   -1.3346 O   0  0  0  0  0  0  0  0  0  0  0  0
    3.4885    2.6684   -0.1853 C   0  0  1  0  0  0  0  0  0  0  0  0
    4.2262    1.4937   -0.8280 C   0  0  1  0  0  0  0  0  0  0  0  0
    2.4627    2.1837    0.8393 C   0  0  2  0  0  0  0  0  0  0  0  0
    3.2368    0.4356   -1.3217 C   0  0  1  0  0  0  0  0  0  0  0  0
    1.5892    1.0676    0.2664 C   0  0  1  0  0  0  0  0  0  0  0  0
    3.9525   -0.7987   -1.8611 C   0  0  0  0  0  0  0  0  0  0  0  0
   -0.4437    0.1070    0.8392 C   0  0  0  0  0  0  0  0  0  0  0  0
   -0.6374   -1.1679    0.4550 C   0  0  0  0  0  0  0  0  0  0  0  0
   -1.5689    1.0663    0.7277 C   0  0  0  0  0  0  0  0  0  0  0  0
   -2.8305    0.5334    0.1911 C   0  0  0  0  0  0  0  0  0  0  0  0
   -2.8920   -0.8084   -0.1776 C   0  0  0  0  0  0  0  0  0  0  0  0
    0.4262   -2.1858    0.5240 C   0  0  0  0  0  0  0  0  0  0  0  0
   -3.9508    1.3562    0.0497 C   0  0  0  0  0  0  0  0  0  0  0  0
   -4.0768   -1.3374   -0.6907 C   0  0  0  0  0  0  0  0  0  0  0  0
   -5.1346    0.8248   -0.4635 C   0  0  0  0  0  0  0  0  0  0  0  0
   -5.1978   -0.5192   -0.8330 C   0  0  0  0  0  0  0  0  0  0  0  0
    1.0104   -2.5018    1.7506 C   0  0  0  0  0  0  0  0  0  0  0  0
    0.8486   -2.8331   -0.6370 C   0  0  0  0  0  0  0  0  0  0  0  0
    2.0171   -3.4652    1.8161 C   0  0  0  0  0  0  0  0  0  0  0  0
    1.8552   -3.7965   -0.5717 C   0  0  0  0  0  0  0  0  0  0  0  0
    2.4395   -4.1125    0.6550 C   0  0  0  0  0  0  0  0  0  0  0  0
    3.0137    3.2963   -0.9483 H   0  0  0  0  0  0  0  0  0  0  0  0
    4.9263    1.0695   -0.0985 H   0  0  0  0  0  0  0  0  0  0  0  0
    2.9637    1.8466    1.7545 H   0  0  0  0  0  0  0  0  0  0  0  0
    2.6115    0.8367   -2.1303 H   0  0  0  0  0  0  0  0  0  0  0  0
    0.9676    1.4745   -0.5458 H   0  0  0  0  0  0  0  0  0  0  0  0
    4.5966   -0.5519   -2.7105 H   0  0  0  0  0  0  0  0  0  0  0  0
    3.2281   -1.5560   -2.1745 H   0  0  0  0  0  0  0  0  0  0  0  0
    4.8807    2.9710    1.1644 H   0  0  0  0  0  0  0  0  0  0  0  0
    4.3863    2.3450   -2.5839 H   0  0  0  0  0  0  0  0  0  0  0  0
    1.1541    3.5798    0.4119 H   0  0  0  0  0  0  0  0  0  0  0  0
    5.1747   -2.1441   -1.1838 H   0  0  0  0  0  0  0  0  0  0  0  0
   -4.1204   -2.3854   -0.9772 H   0  0  0  0  0  0  0  0  0  0  0  0
    0.6907   -2.0141    2.6683 H   0  0  0  0  0  0  0  0  0  0  0  0
    0.4072   -2.5953   -1.6018 H   0  0  0  0  0  0  0  0  0  0  0  0
    2.4715   -3.7121    2.7712 H   0  0  0  0  0  0  0  0  0  0  0  0
    2.1859   -4.2987   -1.4761 H   0  0  0  0  0  0  0  0  0  0  0  0
    3.2240   -4.8619    0.7056 H   0  0  0  0  0  0  0  0  0  0  0  0
   -3.0595    2.9244    0.7447 H   0  0  0  0  0  0  0  0  0  0  0  0
   -6.9567    1.0800   -0.9749 H   0  0  0  0  0  0  0  0  0  0  0  0
   -6.2074   -1.9875   -1.5344 H   0  0  0  0  0  0  0  0  0  0  0  0
  1 15  1  0  0  0  0
  1 16  1  0  0  0  0
  2 16  1  0  0  0  0
  2 18  1  0  0  0  0
  3 12  1  0  0  0  0
  3 40  1  0  0  0  0
  4 13  1  0  0  0  0
  4 41  1  0  0  0  0
  5 14  1  0  0  0  0
  5 42  1  0  0  0  0
  6 17  1  0  0  0  0
  6 43  1  0  0  0  0
  7 19  1  0  0  0  0
  7 22  1  0  0  0  0
  8 20  2  0  0  0  0
  9 24  1  0  0  0  0
  9 50  1  0  0  0  0
 10 26  1  0  0  0  0
 10 51  1  0  0  0  0
 11 27  1  0  0  0  0
 11 52  1  0  0  0  0
 12 13  1  0  0  0  0
 12 14  1  0  0  0  0
 12 33  1  0  0  0  0
 13 15  1  0  0  0  0
 13 34  1  0  0  0  0
 14 16  1  0  0  0  0
 14 35  1  0  0  0  0
 15 17  1  0  0  0  0
 15 36  1  0  0  0  0
 16 37  1  0  0  0  0
 17 38  1  0  0  0  0
 17 39  1  0  0  0  0
 18 19  2  0  0  0  0
 18 20  1  0  0  0  0
 19 23  1  0  0  0  0
 20 21  1  0  0  0  0
 21 22  2  0  0  0  0
 21 24  1  0  0  0  0
 22 25  1  0  0  0  0
 23 28  2  0  0  0  0
 23 29  1  0  0  0  0
 24 26  2  0  0  0  0
 25 27  2  0  0  0  0
 25 44  1  0  0  0  0
 26 27  1  0  0  0  0
 28 30  1  0  0  0  0
 28 45  1  0  0  0  0
 29 31  2  0  0  0  0
 29 46  1  0  0  0  0
 30 32  2  0  0  0  0
 30 47  1  0  0  0  0
 31 32  1  0  0  0  0
 31 48  1  0  0  0  0
 32 49  1  0  0  0  0
M  END
> <PUBCHEM_COMPOUND_CID>
101876630

> <PUBCHEM_CONFORMER_RMSD>
0.8

> <PUBCHEM_CONFORMER_DIVERSEORDER>
1
7
36
20
6
35
31
22
30
9
16
21
28
4
23
19
3
8
18
37
13
27
2
32
17
34
12
10
33
26
24
15
14
11
25
29
5

> <PUBCHEM_MMFF94_PARTIAL_CHARGES>
45
1 -0.56
10 -0.53
11 -0.53
12 0.28
13 0.28
14 0.28
15 0.28
16 0.56
17 0.28
18 0.09
19 0.05
2 -0.36
20 0.47
21 0.09
22 0.08
23 0.03
24 0.08
25 -0.15
26 0.08
27 0.08
28 -0.15
29 -0.15
3 -0.68
30 -0.15
31 -0.15
32 -0.15
4 -0.68
40 0.4
41 0.4
42 0.4
43 0.4
44 0.15
45 0.15
46 0.15
47 0.15
48 0.15
49 0.15
5 -0.68
50 0.45
51 0.45
52 0.45
6 -0.68
7 -0.16
8 -0.57
9 -0.53

> <PUBCHEM_EFFECTIVE_ROTOR_COUNT>
5.2

> <PUBCHEM_PHARMACOPHORE_FEATURES>
19
1 1 acceptor
1 10 donor
1 11 donor
1 2 acceptor
1 3 acceptor
1 3 donor
1 4 acceptor
1 4 donor
1 5 acceptor
1 5 donor
1 6 acceptor
1 6 donor
1 7 acceptor
1 8 acceptor
1 9 donor
6 1 12 13 14 15 16 rings
6 21 22 24 25 26 27 rings
6 23 28 29 30 31 32 rings
6 7 18 19 20 21 22 rings

> <PUBCHEM_HEAVY_ATOM_COUNT>
32

> <PUBCHEM_ATOM_DEF_STEREO_COUNT>
5

> <PUBCHEM_ATOM_UDEF_STEREO_COUNT>
0

> <PUBCHEM_BOND_DEF_STEREO_COUNT>
0

> <PUBCHEM_BOND_UDEF_STEREO_COUNT>
0

> <PUBCHEM_ISOTOPIC_ATOM_COUNT>
0

> <PUBCHEM_COMPONENT_COUNT>
1

> <PUBCHEM_CACTVS_TAUTO_COUNT>
7

> <PUBCHEM_CONFORMER_ID>
0612839600000001

> <PUBCHEM_MMFF94_ENERGY>
101.8771

> <PUBCHEM_FEATURE_SELFOVERLAP>
96.535

> <PUBCHEM_SHAPE_FINGERPRINT>
10190108 129 18048048643041357987
10305334 12 17190330663946030256
10675989 125 18412548712831889376
10721379 63 18336828567819346490
11273773 38 17474673854251226913
11578080 2 17097242491891719331
12035759 4 18272094846603954475
12156800 1 15766356384934666982
12730499 353 18335148591883573571
12788726 201 17701824280931387497
133893 2 18115031779550442362
13540713 5 18271520889408846497
14068700 675 17833551198472681562
14931854 50 18341630213061195404
15475509 35 13901905648501618479
1813 80 17976810987407005571
18681886 176 18200306620352423534
20567600 347 18334852865778288786
22393880 68 18412824690112525103
23366157 5 18188763947051403227
23559900 14 18199174097726868587
238 59 18339654398945071874
25147074 1 18198626528177525945
3298306 158 18410576223140947642
3504750 166 16458246745092389354
4058900 60 18114474430561454642
4280585 95 17409103400191638614
513532 50 17988072306211192046
5895379 119 17699571338060133179
6669772 16 18270956981308394290
67856867 119 18336537231840440483
7471813 234 17829894226776921090
9981440 41 18263358260258720107

> <PUBCHEM_SHAPE_MULTIPOLES>
593.98
11.37
4.74
1.46
12.89
2.02
-0.06
-5.49
-5.98
-5.72
1.39
-1.19
0.31
-1.05

> <PUBCHEM_SHAPE_SELFOVERLAP>
1308.863

> <PUBCHEM_SHAPE_VOLUME>
316.6

> <PUBCHEM_COORDINATE_TYPE>
2
5
10

$$$$
