169570
  -OEChem-09122008083D

 35 36  0     1  0  0  0  0  0999 V2000
   -1.1180    2.9164    0.4260 O   0  0  0  0  0  0  0  0  0  0  0  0
   -0.1755   -2.4125    0.4775 O   0  0  0  0  0  0  0  0  0  0  0  0
    0.8532   -0.2547    0.1385 C   0  0  1  0  0  0  0  0  0  0  0  0
    0.4533    1.1284    0.6407 C   0  0  0  0  0  0  0  0  0  0  0  0
   -0.7254    1.6768   -0.1599 C   0  0  1  0  0  0  0  0  0  0  0  0
    2.0601   -0.7740    0.9168 C   0  0  0  0  0  0  0  0  0  0  0  0
   -1.8843    0.7086   -0.1769 C   0  0  0  0  0  0  0  0  0  0  0  0
   -0.3245   -1.2137    0.2568 C   0  0  0  0  0  0  0  0  0  0  0  0
   -1.6890   -0.6685    0.0240 C   0  0  0  0  0  0  0  0  0  0  0  0
   -3.1836    1.1672   -0.4506 C   0  0  0  0  0  0  0  0  0  0  0  0
    3.2562    0.1054    0.7087 C   0  0  0  0  0  0  0  0  0  0  0  0
   -2.7760   -1.5528   -0.0061 C   0  0  0  0  0  0  0  0  0  0  0  0
   -4.2639    0.2842   -0.4837 C   0  0  0  0  0  0  0  0  0  0  0  0
   -4.0606   -1.0733   -0.2563 C   0  0  0  0  0  0  0  0  0  0  0  0
    4.1711    0.0324   -0.2768 C   0  0  0  0  0  0  0  0  0  0  0  0
    5.3522    0.9482   -0.4298 C   0  0  0  0  0  0  0  0  0  0  0  0
    4.0549   -1.0180   -1.3490 C   0  0  0  0  0  0  0  0  0  0  0  0
    1.0998   -0.2019   -0.9307 H   0  0  0  0  0  0  0  0  0  0  0  0
    1.2798    1.8448    0.5654 H   0  0  0  0  0  0  0  0  0  0  0  0
    0.1885    1.0883    1.7072 H   0  0  0  0  0  0  0  0  0  0  0  0
   -0.4243    1.8719   -1.1965 H   0  0  0  0  0  0  0  0  0  0  0  0
    1.8343   -0.8100    1.9910 H   0  0  0  0  0  0  0  0  0  0  0  0
    2.2927   -1.8107    0.6479 H   0  0  0  0  0  0  0  0  0  0  0  0
   -3.3681    2.2216   -0.6416 H   0  0  0  0  0  0  0  0  0  0  0  0
    3.3850    0.8885    1.4549 H   0  0  0  0  0  0  0  0  0  0  0  0
   -2.6419   -2.6194    0.1538 H   0  0  0  0  0  0  0  0  0  0  0  0
   -0.3582    3.5207    0.3713 H   0  0  0  0  0  0  0  0  0  0  0  0
   -5.2629    0.6572   -0.6898 H   0  0  0  0  0  0  0  0  0  0  0  0
   -4.9012   -1.7605   -0.2827 H   0  0  0  0  0  0  0  0  0  0  0  0
    6.2847    0.3755   -0.4048 H   0  0  0  0  0  0  0  0  0  0  0  0
    5.2970    1.4880   -1.3805 H   0  0  0  0  0  0  0  0  0  0  0  0
    5.3933    1.6901    0.3744 H   0  0  0  0  0  0  0  0  0  0  0  0
    3.1417   -1.6149   -1.3087 H   0  0  0  0  0  0  0  0  0  0  0  0
    4.9037   -1.7075   -1.2876 H   0  0  0  0  0  0  0  0  0  0  0  0
    4.0738   -0.5433   -2.3365 H   0  0  0  0  0  0  0  0  0  0  0  0
  1  5  1  0  0  0  0
  1 27  1  0  0  0  0
  2  8  2  0  0  0  0
  3  4  1  0  0  0  0
  3  6  1  0  0  0  0
  3  8  1  0  0  0  0
  3 18  1  0  0  0  0
  4  5  1  0  0  0  0
  4 19  1  0  0  0  0
  4 20  1  0  0  0  0
  5  7  1  0  0  0  0
  5 21  1  0  0  0  0
  6 11  1  0  0  0  0
  6 22  1  0  0  0  0
  6 23  1  0  0  0  0
  7  9  1  0  0  0  0
  7 10  2  0  0  0  0
  8  9  1  0  0  0  0
  9 12  2  0  0  0  0
 10 13  1  0  0  0  0
 10 24  1  0  0  0  0
 11 15  2  0  0  0  0
 11 25  1  0  0  0  0
 12 14  1  0  0  0  0
 12 26  1  0  0  0  0
 13 14  2  0  0  0  0
 13 28  1  0  0  0  0
 14 29  1  0  0  0  0
 15 16  1  0  0  0  0
 15 17  1  0  0  0  0
 16 30  1  0  0  0  0
 16 31  1  0  0  0  0
 16 32  1  0  0  0  0
 17 33  1  0  0  0  0
 17 34  1  0  0  0  0
 17 35  1  0  0  0  0
M  END
> <PUBCHEM_COMPOUND_CID>
169570

> <PUBCHEM_CONFORMER_RMSD>
0.6

> <PUBCHEM_CONFORMER_DIVERSEORDER>
1
5
10
8
6
7
9
2
4
3

> <PUBCHEM_MMFF94_PARTIAL_CHARGES>
22
1 -0.68
10 -0.15
11 -0.29
12 -0.15
13 -0.15
14 -0.15
15 -0.28
16 0.14
17 0.14
2 -0.57
24 0.15
25 0.15
26 0.15
27 0.4
28 0.15
29 0.15
3 0.06
5 0.42
6 0.14
7 -0.14
8 0.42
9 0.09

> <PUBCHEM_EFFECTIVE_ROTOR_COUNT>
2.6

> <PUBCHEM_PHARMACOPHORE_FEATURES>
6
1 1 acceptor
1 1 donor
1 2 acceptor
3 15 16 17 hydrophobe
6 3 4 5 7 8 9 rings
6 7 9 10 12 13 14 rings

> <PUBCHEM_HEAVY_ATOM_COUNT>
17

> <PUBCHEM_ATOM_DEF_STEREO_COUNT>
2

> <PUBCHEM_ATOM_UDEF_STEREO_COUNT>
0

> <PUBCHEM_BOND_DEF_STEREO_COUNT>
0

> <PUBCHEM_BOND_UDEF_STEREO_COUNT>
0

> <PUBCHEM_ISOTOPIC_ATOM_COUNT>
0

> <PUBCHEM_COMPONENT_COUNT>
1

> <PUBCHEM_CACTVS_TAUTO_COUNT>
2

> <PUBCHEM_CONFORMER_ID>
0002966200000001

> <PUBCHEM_MMFF94_ENERGY>
36.9205

> <PUBCHEM_FEATURE_SELFOVERLAP>
30.467

> <PUBCHEM_SHAPE_FINGERPRINT>
10498660 4 18335699412575141644
10759866 29 17968369048834592138
11132069 177 18341322353393386131
11578080 2 14690364263631899193
11680986 33 17977379765873003993
12032990 46 18341894125473474787
12236239 1 17530960289706719082
12403814 3 17240476988385992381
12954195 1 18056771940118793012
14790565 3 18339369539518840361
15048467 5 17603298246256198133
15196674 1 18408881815344933378
15536298 74 18269549601660830144
15848702 151 17489875929237732655
16945 1 18267009584203971369
17804303 29 18411978105009008817
18186145 218 18410568474845755344
20300324 65 18411983559316872236
20510252 161 18341895169061013160
20645476 183 17749108919484669522
20871999 31 18410009961493135710
21029758 11 18341610460021498545
21029758 27 18187367679258952733
21267235 1 18338801216914122795
21501502 16 18050844425277414395
22094290 60 18342741797267020184
2297311 6 18341903999487140020
23175994 123 17131834295821588169
23402539 116 18411411830598023782
23557571 272 18341056306440434014
23558518 356 17831855751162115755
23559900 14 18413389813825904078
2748010 2 18266441282663367881
296302 2 16370724820386975819
4028521 119 18408884023195338084
42 15 10519990365911775140
43471831 8 18262510390733583539
465052 167 11815316291706227997
474 4 16878513457313250628
4990 188 18273496749947118382
537710 114 18333166167575138637
58051976 378 18411697656503082230
7364860 26 18053658363322491433
9709674 26 18341341041477001846

> <PUBCHEM_SHAPE_MULTIPOLES>
338.11
9.05
2.09
0.9
7.08
0.54
-0.08
0.02
-2.65
-1.05
0.2
0.62
-0.1
0.22

> <PUBCHEM_SHAPE_SELFOVERLAP>
710.49

> <PUBCHEM_SHAPE_VOLUME>
189.9

> <PUBCHEM_COORDINATE_TYPE>
2
5
10

$$$$
