14135335
  -OEChem-09122005213D

 49 52  0     1  0  0  0  0  0999 V2000
    2.9799   -0.2053   -0.3509 O   0  0  0  0  0  0  0  0  0  0  0  0
    2.0345   -0.8860    1.6705 O   0  0  0  0  0  0  0  0  0  0  0  0
    6.2477    1.3902    1.5590 O   0  0  0  0  0  0  0  0  0  0  0  0
    3.7606    0.8755    3.0499 O   0  0  0  0  0  0  0  0  0  0  0  0
    5.6183    2.1942   -1.1623 O   0  0  0  0  0  0  0  0  0  0  0  0
    4.3550    1.1276   -3.2935 O   0  0  0  0  0  0  0  0  0  0  0  0
    3.3952   -0.8751   -2.7796 O   0  0  0  0  0  0  0  0  0  0  0  0
   -2.4050    0.3056    0.4750 O   0  0  0  0  0  0  0  0  0  0  0  0
   -0.7729   -4.1995   -0.2564 O   0  0  0  0  0  0  0  0  0  0  0  0
   -3.2090   -3.4514   -0.8804 O   0  0  0  0  0  0  0  0  0  0  0  0
    4.9301    1.4087    1.0078 C   0  0  2  0  0  0  0  0  0  0  0  0
    4.0559    0.3905    1.7402 C   0  0  2  0  0  0  0  0  0  0  0  0
    5.0363    1.0832   -0.4824 C   0  0  1  0  0  0  0  0  0  0  0  0
    3.6592    0.8134   -1.0757 C   0  0  1  0  0  0  0  0  0  0  0  0
    2.7352    0.1636    1.0040 C   0  0  1  0  0  0  0  0  0  0  0  0
    3.7719    0.2401   -2.4512 C   0  0  0  0  0  0  0  0  0  0  0  0
    0.8255   -1.2403    1.1488 C   0  0  0  0  0  0  0  0  0  0  0  0
   -0.1998   -0.2981    1.0650 C   0  0  0  0  0  0  0  0  0  0  0  0
    0.6160   -2.5453    0.7004 C   0  0  0  0  0  0  0  0  0  0  0  0
   -1.4358   -0.6636    0.5311 C   0  0  0  0  0  0  0  0  0  0  0  0
   -1.6433   -1.9673    0.0840 C   0  0  0  0  0  0  0  0  0  0  0  0
   -0.6193   -2.9139    0.1663 C   0  0  0  0  0  0  0  0  0  0  0  0
   -2.9565   -2.3261   -0.4727 C   0  0  0  0  0  0  0  0  0  0  0  0
   -3.6416   -0.0269   -0.0571 C   0  0  0  0  0  0  0  0  0  0  0  0
   -3.9646   -1.2474   -0.5134 C   0  0  0  0  0  0  0  0  0  0  0  0
   -4.6108    1.0872   -0.0643 C   0  0  0  0  0  0  0  0  0  0  0  0
   -5.9779    0.8291    0.0640 C   0  0  0  0  0  0  0  0  0  0  0  0
   -4.1653    2.4045   -0.1992 C   0  0  0  0  0  0  0  0  0  0  0  0
   -6.8936    1.8813    0.0570 C   0  0  0  0  0  0  0  0  0  0  0  0
   -5.0810    3.4567   -0.2061 C   0  0  0  0  0  0  0  0  0  0  0  0
   -6.4451    3.1950   -0.0780 C   0  0  0  0  0  0  0  0  0  0  0  0
    4.5467    2.4263    1.1542 H   0  0  0  0  0  0  0  0  0  0  0  0
    4.5920   -0.5593    1.8605 H   0  0  0  0  0  0  0  0  0  0  0  0
    5.7052    0.2263   -0.6297 H   0  0  0  0  0  0  0  0  0  0  0  0
    2.1355    1.0827    1.0411 H   0  0  0  0  0  0  0  0  0  0  0  0
    3.0296    1.7102   -1.1305 H   0  0  0  0  0  0  0  0  0  0  0  0
    6.1848    1.6820    2.4839 H   0  0  0  0  0  0  0  0  0  0  0  0
    4.5979    0.9289    3.5405 H   0  0  0  0  0  0  0  0  0  0  0  0
    5.0322    2.9610   -1.0440 H   0  0  0  0  0  0  0  0  0  0  0  0
   -0.0539    0.7160    1.4274 H   0  0  0  0  0  0  0  0  0  0  0  0
    1.4193   -3.2751    0.7679 H   0  0  0  0  0  0  0  0  0  0  0  0
    4.4398    0.7688   -4.2026 H   0  0  0  0  0  0  0  0  0  0  0  0
   -4.9277   -1.5016   -0.9401 H   0  0  0  0  0  0  0  0  0  0  0  0
   -1.6655   -4.3376   -0.6083 H   0  0  0  0  0  0  0  0  0  0  0  0
   -6.3658   -0.1778    0.1934 H   0  0  0  0  0  0  0  0  0  0  0  0
   -3.1088    2.6368   -0.3091 H   0  0  0  0  0  0  0  0  0  0  0  0
   -7.9554    1.6785    0.1617 H   0  0  0  0  0  0  0  0  0  0  0  0
   -4.7323    4.4798   -0.3128 H   0  0  0  0  0  0  0  0  0  0  0  0
   -7.1579    4.0144   -0.0825 H   0  0  0  0  0  0  0  0  0  0  0  0
  1 14  1  0  0  0  0
  1 15  1  0  0  0  0
  2 15  1  0  0  0  0
  2 17  1  0  0  0  0
  3 11  1  0  0  0  0
  3 37  1  0  0  0  0
  4 12  1  0  0  0  0
  4 38  1  0  0  0  0
  5 13  1  0  0  0  0
  5 39  1  0  0  0  0
  6 16  1  0  0  0  0
  6 42  1  0  0  0  0
  7 16  2  0  0  0  0
  8 20  1  0  0  0  0
  8 24  1  0  0  0  0
  9 22  1  0  0  0  0
  9 44  1  0  0  0  0
 10 23  2  0  0  0  0
 11 12  1  0  0  0  0
 11 13  1  0  0  0  0
 11 32  1  0  0  0  0
 12 15  1  0  0  0  0
 12 33  1  0  0  0  0
 13 14  1  0  0  0  0
 13 34  1  0  0  0  0
 14 16  1  0  0  0  0
 14 36  1  0  0  0  0
 15 35  1  0  0  0  0
 17 18  1  0  0  0  0
 17 19  2  0  0  0  0
 18 20  2  0  0  0  0
 18 40  1  0  0  0  0
 19 22  1  0  0  0  0
 19 41  1  0  0  0  0
 20 21  1  0  0  0  0
 21 22  2  0  0  0  0
 21 23  1  0  0  0  0
 23 25  1  0  0  0  0
 24 25  2  0  0  0  0
 24 26  1  0  0  0  0
 25 43  1  0  0  0  0
 26 27  2  0  0  0  0
 26 28  1  0  0  0  0
 27 29  1  0  0  0  0
 27 45  1  0  0  0  0
 28 30  2  0  0  0  0
 28 46  1  0  0  0  0
 29 31  2  0  0  0  0
 29 47  1  0  0  0  0
 30 31  1  0  0  0  0
 30 48  1  0  0  0  0
 31 49  1  0  0  0  0
M  END
> <PUBCHEM_COMPOUND_CID>
14135335

> <PUBCHEM_CONFORMER_RMSD>
0.8

> <PUBCHEM_CONFORMER_DIVERSEORDER>
2
28
45
107
98
53
109
93
99
65
72
94
23
8
38
113
86
104
119
81
115
69
26
74
54
66
97
18
35
76
27
84
82
12
68
108
3
106
43
101
90
40
37
21
5
9
7
59
89
75
47
110
62
83
6
85
111
4
11
60
42
67
118
10
102
15
46
71
41
44
52
64
25
1
91
57
103
58
117
87
33
61
112
73
96
49
80
14
78
77
63
32
56
116
114
70
88
79
31
29
51
36
39
20
105
13
92
95
30
17
50
34
19
100
22
55
24
48
16

> <PUBCHEM_MMFF94_PARTIAL_CHARGES>
44
1 -0.56
10 -0.57
11 0.28
12 0.28
13 0.28
14 0.34
15 0.56
16 0.66
17 0.08
18 -0.15
19 -0.15
2 -0.36
20 0.08
21 0.09
22 0.08
23 0.47
24 0.05
25 -0.14
26 0.03
27 -0.15
28 -0.15
29 -0.15
3 -0.68
30 -0.15
31 -0.15
37 0.4
38 0.4
39 0.4
4 -0.68
40 0.15
41 0.15
42 0.5
43 0.15
44 0.45
45 0.15
46 0.15
47 0.15
48 0.15
49 0.15
5 -0.68
6 -0.65
7 -0.57
8 -0.16
9 -0.53

> <PUBCHEM_EFFECTIVE_ROTOR_COUNT>
5.2

> <PUBCHEM_PHARMACOPHORE_FEATURES>
18
1 1 acceptor
1 10 acceptor
1 2 acceptor
1 3 acceptor
1 3 donor
1 4 acceptor
1 4 donor
1 5 acceptor
1 5 donor
1 6 acceptor
1 7 acceptor
1 8 acceptor
1 9 donor
3 6 7 16 anion
6 1 11 12 13 14 15 rings
6 17 18 19 20 21 22 rings
6 26 27 28 29 30 31 rings
6 8 20 21 23 24 25 rings

> <PUBCHEM_HEAVY_ATOM_COUNT>
31

> <PUBCHEM_ATOM_DEF_STEREO_COUNT>
5

> <PUBCHEM_ATOM_UDEF_STEREO_COUNT>
0

> <PUBCHEM_BOND_DEF_STEREO_COUNT>
0

> <PUBCHEM_BOND_UDEF_STEREO_COUNT>
0

> <PUBCHEM_ISOTOPIC_ATOM_COUNT>
0

> <PUBCHEM_COMPONENT_COUNT>
1

> <PUBCHEM_CACTVS_TAUTO_COUNT>
5

> <PUBCHEM_CONFORMER_ID>
00D7B02700000002

> <PUBCHEM_MMFF94_ENERGY>
98.9591

> <PUBCHEM_FEATURE_SELFOVERLAP>
91.516

> <PUBCHEM_SHAPE_FINGERPRINT>
10411042 1 17763169646897901635
105312 117 18341889697636557879
10615611 76 17676774248632132047
10721379 63 17985551039622127499
11720765 8 17629486285621779486
1200032 147 17096393716602555606
12107183 9 18191567693539760762
12390115 104 18272371979996522155
12422481 6 17096079174139947925
12633257 1 15646774500360159816
12788726 201 17462579620949796570
13540713 5 18194655165103792043
13617811 41 18195243558485549711
13627167 48 17702675324390649257
14294032 229 18261381244290056773
14747281 78 17273995544983143549
14790565 3 18340483357988134441
14840074 17 17531539715249972021
15131766 46 16226906595351247327
15163728 17 18336553737521143431
15183329 4 15985104085672859209
15324884 4 17057512928054919170
15513586 35 17170408556996398389
15721738 15 17631182896060738166
16988056 13 17113809696928275997
17134984 74 14261051195475924381
19304671 126 17346312640560643529
19315092 285 13325733900342960918
21033650 10 18263939889494539274
21302155 148 18334854987998593473
21792934 111 12107791784080289253
22122407 14 17385739005623797089
23559900 14 17988932184475476282
24771750 20 18270968938113277423
249057 25 17604140540550598727
3459 39 18335968797129548573
3472631 163 18409730689914146084
38570 142 17314252036819292166
392239 28 15502376733828188649
4066623 53 17844251727185426104
44249763 50 17988068006463372297
46194498 28 17272850059281561282
513532 50 18201719492708797614
5219985 13 18410570661411422431
5223283 242 17273717389225232257
5283173 99 18271526506624637264
57724786 102 16660655093708861196
5895379 119 18263368147811355892
59025328 239 14333126351792952794
5951187 136 18337118946970585364
59682541 52 15769771308846637681
6700243 42 17766027221002864574
7808743 9 18410566293429474811
7970288 3 9511462242591771265
960060 61 15123502597286052977
9849439 229 18408880707749721339

> <PUBCHEM_SHAPE_MULTIPOLES>
579.27
16.11
3.91
2.07
5.65
2.13
-0.88
-17.78
-1.29
5.08
-0.58
-5.29
-0.54
-0.58

> <PUBCHEM_SHAPE_SELFOVERLAP>
1277.588

> <PUBCHEM_SHAPE_VOLUME>
307

> <PUBCHEM_COORDINATE_TYPE>
2
5
10

$$$$
