5480982
  -OEChem-09122006083D

 52 55  0     1  0  0  0  0  0999 V2000
    3.3576   -0.6069   -0.3850 O   0  0  0  0  0  0  0  0  0  0  0  0
    2.5501    0.2301    1.6536 O   0  0  0  0  0  0  0  0  0  0  0  0
    7.0903   -1.3306    1.2530 O   0  0  0  0  0  0  0  0  0  0  0  0
    6.7678   -1.2030   -1.6153 O   0  0  0  0  0  0  0  0  0  0  0  0
    4.4287   -1.7978    1.9442 O   0  0  0  0  0  0  0  0  0  0  0  0
    2.8023   -0.7790   -3.0617 O   0  0  0  0  0  0  0  0  0  0  0  0
   -2.0466   -0.1864    0.5359 O   0  0  0  0  0  0  0  0  0  0  0  0
    0.3292    3.9586   -0.2784 O   0  0  0  0  0  0  0  0  0  0  0  0
   -4.5231    2.1116   -0.9387 O   0  0  0  0  0  0  0  0  0  0  0  0
   -2.2014    3.6407   -0.8546 O   0  0  0  0  0  0  0  0  0  0  0  0
   -7.5200   -3.2715    0.1231 O   0  0  0  0  0  0  0  0  0  0  0  0
    6.0507   -0.5997    0.6084 C   0  0  1  0  0  0  0  0  0  0  0  0
    5.6792   -1.3017   -0.7005 C   0  0  1  0  0  0  0  0  0  0  0  0
    4.8366   -0.4900    1.5304 C   0  0  1  0  0  0  0  0  0  0  0  0
    4.4368   -0.6506   -1.3244 C   0  0  1  0  0  0  0  0  0  0  0  0
    3.6732    0.1581    0.7804 C   0  0  1  0  0  0  0  0  0  0  0  0
    3.9514   -1.4253   -2.5454 C   0  0  0  0  0  0  0  0  0  0  0  0
    1.4122    0.7833    1.1441 C   0  0  0  0  0  0  0  0  0  0  0  0
    0.2379    0.0323    1.0870 C   0  0  0  0  0  0  0  0  0  0  0  0
    1.4244    2.0996    0.6810 C   0  0  0  0  0  0  0  0  0  0  0  0
   -0.9245    0.6005    0.5651 C   0  0  0  0  0  0  0  0  0  0  0  0
   -0.9109    1.9148    0.1035 C   0  0  0  0  0  0  0  0  0  0  0  0
    0.2629    2.6703    0.1591 C   0  0  0  0  0  0  0  0  0  0  0  0
   -2.1508    2.4906   -0.4397 C   0  0  0  0  0  0  0  0  0  0  0  0
   -3.2146    0.3464    0.0135 C   0  0  0  0  0  0  0  0  0  0  0  0
   -3.3375    1.6015   -0.4557 C   0  0  0  0  0  0  0  0  0  0  0  0
   -4.3422   -0.6019    0.0422 C   0  0  0  0  0  0  0  0  0  0  0  0
   -4.5812   -1.4358   -1.0504 C   0  0  0  0  0  0  0  0  0  0  0  0
   -5.1718   -0.6657    1.1621 C   0  0  0  0  0  0  0  0  0  0  0  0
   -5.6490   -2.3329   -1.0231 C   0  0  0  0  0  0  0  0  0  0  0  0
   -6.2395   -1.5629    1.1894 C   0  0  0  0  0  0  0  0  0  0  0  0
   -6.4782   -2.3965    0.0968 C   0  0  0  0  0  0  0  0  0  0  0  0
    6.4462    0.4022    0.4003 H   0  0  0  0  0  0  0  0  0  0  0  0
    5.5113   -2.3692   -0.5161 H   0  0  0  0  0  0  0  0  0  0  0  0
    5.0841    0.0597    2.4444 H   0  0  0  0  0  0  0  0  0  0  0  0
    4.6538    0.3782   -1.6425 H   0  0  0  0  0  0  0  0  0  0  0  0
    3.9693    1.1717    0.4804 H   0  0  0  0  0  0  0  0  0  0  0  0
    3.6679   -2.4499   -2.2823 H   0  0  0  0  0  0  0  0  0  0  0  0
    4.7113   -1.4605   -3.3313 H   0  0  0  0  0  0  0  0  0  0  0  0
    7.8322   -1.3946    0.6274 H   0  0  0  0  0  0  0  0  0  0  0  0
    6.9290   -0.2601   -1.7901 H   0  0  0  0  0  0  0  0  0  0  0  0
    4.0198   -2.2459    1.1847 H   0  0  0  0  0  0  0  0  0  0  0  0
    2.1379   -0.7480   -2.3521 H   0  0  0  0  0  0  0  0  0  0  0  0
    0.2316   -0.9931    1.4479 H   0  0  0  0  0  0  0  0  0  0  0  0
    2.3303    2.6977    0.7380 H   0  0  0  0  0  0  0  0  0  0  0  0
   -0.5304    4.2461   -0.6220 H   0  0  0  0  0  0  0  0  0  0  0  0
   -3.9435   -1.3980   -1.9301 H   0  0  0  0  0  0  0  0  0  0  0  0
   -4.9981   -0.0224    2.0214 H   0  0  0  0  0  0  0  0  0  0  0  0
   -5.2170    1.4345   -0.8915 H   0  0  0  0  0  0  0  0  0  0  0  0
   -5.8299   -2.9797   -1.8773 H   0  0  0  0  0  0  0  0  0  0  0  0
   -6.8781   -1.6026    2.0678 H   0  0  0  0  0  0  0  0  0  0  0  0
   -7.9862   -3.1809    0.9719 H   0  0  0  0  0  0  0  0  0  0  0  0
  1 15  1  0  0  0  0
  1 16  1  0  0  0  0
  2 16  1  0  0  0  0
  2 18  1  0  0  0  0
  3 12  1  0  0  0  0
  3 40  1  0  0  0  0
  4 13  1  0  0  0  0
  4 41  1  0  0  0  0
  5 14  1  0  0  0  0
  5 42  1  0  0  0  0
  6 17  1  0  0  0  0
  6 43  1  0  0  0  0
  7 21  1  0  0  0  0
  7 25  1  0  0  0  0
  8 23  1  0  0  0  0
  8 46  1  0  0  0  0
  9 26  1  0  0  0  0
  9 49  1  0  0  0  0
 10 24  2  0  0  0  0
 11 32  1  0  0  0  0
 11 52  1  0  0  0  0
 12 13  1  0  0  0  0
 12 14  1  0  0  0  0
 12 33  1  0  0  0  0
 13 15  1  0  0  0  0
 13 34  1  0  0  0  0
 14 16  1  0  0  0  0
 14 35  1  0  0  0  0
 15 17  1  0  0  0  0
 15 36  1  0  0  0  0
 16 37  1  0  0  0  0
 17 38  1  0  0  0  0
 17 39  1  0  0  0  0
 18 19  1  0  0  0  0
 18 20  2  0  0  0  0
 19 21  2  0  0  0  0
 19 44  1  0  0  0  0
 20 23  1  0  0  0  0
 20 45  1  0  0  0  0
 21 22  1  0  0  0  0
 22 23  2  0  0  0  0
 22 24  1  0  0  0  0
 24 26  1  0  0  0  0
 25 26  2  0  0  0  0
 25 27  1  0  0  0  0
 27 28  2  0  0  0  0
 27 29  1  0  0  0  0
 28 30  1  0  0  0  0
 28 47  1  0  0  0  0
 29 31  2  0  0  0  0
 29 48  1  0  0  0  0
 30 32  2  0  0  0  0
 30 50  1  0  0  0  0
 31 32  1  0  0  0  0
 31 51  1  0  0  0  0
M  END
> <PUBCHEM_COMPOUND_CID>
5480982

> <PUBCHEM_CONFORMER_RMSD>
0.8

> <PUBCHEM_CONFORMER_DIVERSEORDER>
3
394
387
4
397
154
310
356
264
293
377
109
381
298
304
66
392
199
233
246
149
261
354
401
254
204
390
321
244
278
334
8
112
239
330
314
194
309
389
128
340
273
201
234
323
398
104
150
380
332
333
344
275
342
203
353
52
188
145
307
209
376
385
384
134
151
74
168
236
241
252
271
251
148
198
107
155
206
222
208
327
90
10
51
249
294
379
300
374
235
140
299
348
178
386
21
213
226
161
295
302
210
247
400
205
255
328
177
364
59
216
355
335
267
62
96
270
122
31
141
11
38
19
269
174
76
303
283
106
43
325
352
388
130
123
17
371
372
185
182
224
369
221
131
258
378
306
63
163
110
367
172
72
132
337
360
240
175
15
164
136
272
22
86
396
395
144
368
7
42
116
349
159
56
345
120
186
78
238
248
94
316
338
115
68
138
180
315
158
263
225
146
162
64
383
61
69
83
147
285
176
229
5
153
55
366
108
189
20
219
297
14
129
127
318
13
231
58
363
257
350
75
192
113
243
48
156
281
256
82
84
16
70
207
49
308
227
358
111
317
166
286
324
89
160
30
2
305
121
142
114
217
365
99
260
288
39
157
326
95
67
296
250
399
167
322
165
193
102
228
215
242
9
35
220
179
92
214
117
118
100
357
152
45
97
23
170
181
71
351
53
183
137
287
81
301
259
292
282
143
237
50
211
277
88
80
184
266
103
276
289
37
25
190
202
311
98
230
79
362
54
126
40
343
119
12
284
346
320
77
232
195
87
245
171
91
274
375
187
47
341
347
373
124
329
280
73
1
101
212
196
290
57
33
262
359
223
253
18
339
27
279
93
191
135
133
200
85
391
41
313
46
268
197
139
36
265
312
382
218
169
331
173
34
24
125
361
32
105
29
60
44
393
6
65
26
291
370
28
336
319

> <PUBCHEM_MMFF94_PARTIAL_CHARGES>
45
1 -0.56
10 -0.57
11 -0.53
12 0.28
13 0.28
14 0.28
15 0.28
16 0.56
17 0.28
18 0.08
19 -0.15
2 -0.36
20 -0.15
21 0.08
22 0.09
23 0.08
24 0.47
25 0.05
26 0.09
27 0.03
28 -0.15
29 -0.15
3 -0.68
30 -0.15
31 -0.15
32 0.08
4 -0.68
40 0.4
41 0.4
42 0.4
43 0.4
44 0.15
45 0.15
46 0.45
47 0.15
48 0.15
49 0.45
5 -0.68
50 0.15
51 0.15
52 0.45
6 -0.68
7 -0.16
8 -0.53
9 -0.53

> <PUBCHEM_EFFECTIVE_ROTOR_COUNT>
5.2

> <PUBCHEM_PHARMACOPHORE_FEATURES>
19
1 1 acceptor
1 10 acceptor
1 11 donor
1 2 acceptor
1 3 acceptor
1 3 donor
1 4 acceptor
1 4 donor
1 5 acceptor
1 5 donor
1 6 acceptor
1 6 donor
1 7 acceptor
1 8 donor
1 9 donor
6 1 12 13 14 15 16 rings
6 18 19 20 21 22 23 rings
6 27 28 29 30 31 32 rings
6 7 21 22 24 25 26 rings

> <PUBCHEM_HEAVY_ATOM_COUNT>
32

> <PUBCHEM_ATOM_DEF_STEREO_COUNT>
0

> <PUBCHEM_ATOM_UDEF_STEREO_COUNT>
5

> <PUBCHEM_BOND_DEF_STEREO_COUNT>
0

> <PUBCHEM_BOND_UDEF_STEREO_COUNT>
0

> <PUBCHEM_ISOTOPIC_ATOM_COUNT>
0

> <PUBCHEM_COMPONENT_COUNT>
1

> <PUBCHEM_CACTVS_TAUTO_COUNT>
48

> <PUBCHEM_CONFORMER_ID>
0053A21600000003

> <PUBCHEM_MMFF94_ENERGY>
107.0114

> <PUBCHEM_FEATURE_SELFOVERLAP>
96.528

> <PUBCHEM_SHAPE_FINGERPRINT>
10 15 12535347947986127067
10411042 1 18335133237481284201
10622 236 17605819344719871578
10669705 251 17987804149828548247
10981352 41 18059852934988103007
11991303 11 17606950708453037349
12166972 35 17530685411752276652
12236239 1 17385727946467332944
12422481 6 17560803268699365119
12623949 98 18130509755016393141
13009979 54 18272094933200042417
13402501 40 17846500322695020046
13540713 4 18264745797237796609
13673619 4 18272087218757841865
13690498 29 18260265248746584373
13757389 114 18044376029054126213
13782708 43 18273208690585232514
14117953 113 18340194272835836103
14347332 77 18334292063524715009
14556957 393 17022906727003848919
14765038 42 15195274349024646990
14767858 380 17676207974463999946
15183329 4 15864065464245732463
15461852 350 18334296423781554114
15510800 12 18201716250082530751
1577012 14 17313671456151506422
1813 80 18411423938147923101
19246450 95 13541355839461852026
19301679 30 18201165451129523099
19841028 212 18122904489972116275
21033650 10 17901407614472902924
21585482 310 18339931531910722143
21623969 137 17203607077941278926
21968339 14 14056991733508368440
2260408 40 17060350616662019800
23522609 53 18193025727262383057
25222932 49 18340474621977298194
255183 451 18336827614932712181
2748736 6 9655578504599075923
2838139 119 12251893811273926643
3388396 114 17096675229633216164
3862424 121 16879927485344486139
439807 62 18187363233857187603
563151 74 16557327465901390714
58902169 19 16588023459426398030
6009941 240 17345481388110196033
6058803 2 17534899677019194496
6700243 42 18125182466793274228
7970288 3 18335411418144544355
86090 222 17489040305065557566

> <PUBCHEM_SHAPE_MULTIPOLES>
593.98
18.42
3.47
1.85
0.68
2.54
0.78
-19.76
-0.63
4.29
0.92
-2.72
-0.91
1.35

> <PUBCHEM_SHAPE_SELFOVERLAP>
1305.067

> <PUBCHEM_SHAPE_VOLUME>
316.7

> <PUBCHEM_COORDINATE_TYPE>
2
5
10

$$$$
