15558425
  -OEChem-09122004413D

 50 53  0     1  0  0  0  0  0999 V2000
   -3.1335    0.1959   -0.5731 O   0  0  0  0  0  0  0  0  0  0  0  0
   -2.2752    0.8566    1.4935 O   0  0  0  0  0  0  0  0  0  0  0  0
   -6.4749   -1.4196    1.1852 O   0  0  0  0  0  0  0  0  0  0  0  0
   -5.7834   -2.1459   -1.5259 O   0  0  0  0  0  0  0  0  0  0  0  0
   -4.0426   -0.9422    2.7778 O   0  0  0  0  0  0  0  0  0  0  0  0
   -2.4776   -0.1220   -3.2236 O   0  0  0  0  0  0  0  0  0  0  0  0
    2.2132   -0.3033    0.4626 O   0  0  0  0  0  0  0  0  0  0  0  0
    0.5919    4.2035   -0.2822 O   0  0  0  0  0  0  0  0  0  0  0  0
    3.0533    3.4714   -0.8200 O   0  0  0  0  0  0  0  0  0  0  0  0
   -5.1374   -1.4330    0.6840 C   0  0  1  0  0  0  0  0  0  0  0  0
   -5.1854   -1.0742   -0.8013 C   0  0  1  0  0  0  0  0  0  0  0  0
   -4.2899   -0.4309    1.4683 C   0  0  2  0  0  0  0  0  0  0  0  0
   -3.7772   -0.8199   -1.3444 C   0  0  1  0  0  0  0  0  0  0  0  0
   -2.9434   -0.1879    0.7867 C   0  0  1  0  0  0  0  0  0  0  0  0
   -3.8081   -0.3463   -2.7941 C   0  0  0  0  0  0  0  0  0  0  0  0
   -1.0480    1.2224    1.0251 C   0  0  0  0  0  0  0  0  0  0  0  0
   -0.0160    0.2852    0.9718 C   0  0  0  0  0  0  0  0  0  0  0  0
   -0.8268    2.5329    0.5993 C   0  0  0  0  0  0  0  0  0  0  0  0
    1.2383    0.6614    0.4908 C   0  0  0  0  0  0  0  0  0  0  0  0
    1.4574    1.9708    0.0661 C   0  0  0  0  0  0  0  0  0  0  0  0
    0.4269    2.9122    0.1183 C   0  0  0  0  0  0  0  0  0  0  0  0
    2.7899    2.3408   -0.4345 C   0  0  0  0  0  0  0  0  0  0  0  0
    3.4682    0.0400   -0.0169 C   0  0  0  0  0  0  0  0  0  0  0  0
    3.8036    1.2667   -0.4470 C   0  0  0  0  0  0  0  0  0  0  0  0
    4.4419   -1.0701    0.0023 C   0  0  0  0  0  0  0  0  0  0  0  0
    5.8018   -0.8092    0.1869 C   0  0  0  0  0  0  0  0  0  0  0  0
    4.0062   -2.3872   -0.1623 C   0  0  0  0  0  0  0  0  0  0  0  0
    6.7204   -1.8587    0.2068 C   0  0  0  0  0  0  0  0  0  0  0  0
    4.9247   -3.4368   -0.1424 C   0  0  0  0  0  0  0  0  0  0  0  0
    6.2818   -3.1726    0.0423 C   0  0  0  0  0  0  0  0  0  0  0  0
   -4.7622   -2.4534    0.8302 H   0  0  0  0  0  0  0  0  0  0  0  0
   -5.8186   -0.1895   -0.9422 H   0  0  0  0  0  0  0  0  0  0  0  0
   -4.8357    0.5118    1.5938 H   0  0  0  0  0  0  0  0  0  0  0  0
   -3.1661   -1.7316   -1.2987 H   0  0  0  0  0  0  0  0  0  0  0  0
   -2.3381   -1.1028    0.8343 H   0  0  0  0  0  0  0  0  0  0  0  0
   -4.3553    0.5967   -2.8961 H   0  0  0  0  0  0  0  0  0  0  0  0
   -4.2623   -1.0909   -3.4540 H   0  0  0  0  0  0  0  0  0  0  0  0
   -6.9895   -2.0551    0.6586 H   0  0  0  0  0  0  0  0  0  0  0  0
   -5.2245   -2.9335   -1.4128 H   0  0  0  0  0  0  0  0  0  0  0  0
   -3.5595   -1.7814    2.6879 H   0  0  0  0  0  0  0  0  0  0  0  0
   -2.0819    0.5350   -2.6254 H   0  0  0  0  0  0  0  0  0  0  0  0
   -0.1716   -0.7333    1.3173 H   0  0  0  0  0  0  0  0  0  0  0  0
   -1.6353    3.2587    0.6431 H   0  0  0  0  0  0  0  0  0  0  0  0
    4.7816    1.5292   -0.8327 H   0  0  0  0  0  0  0  0  0  0  0  0
    1.4974    4.3493   -0.5962 H   0  0  0  0  0  0  0  0  0  0  0  0
    6.1808    0.1977    0.3408 H   0  0  0  0  0  0  0  0  0  0  0  0
    2.9557   -2.6216   -0.3161 H   0  0  0  0  0  0  0  0  0  0  0  0
    7.7766   -1.6539    0.3555 H   0  0  0  0  0  0  0  0  0  0  0  0
    4.5837   -4.4597   -0.2721 H   0  0  0  0  0  0  0  0  0  0  0  0
    6.9969   -3.9899    0.0586 H   0  0  0  0  0  0  0  0  0  0  0  0
  1 13  1  0  0  0  0
  1 14  1  0  0  0  0
  2 14  1  0  0  0  0
  2 16  1  0  0  0  0
  3 10  1  0  0  0  0
  3 38  1  0  0  0  0
  4 11  1  0  0  0  0
  4 39  1  0  0  0  0
  5 12  1  0  0  0  0
  5 40  1  0  0  0  0
  6 15  1  0  0  0  0
  6 41  1  0  0  0  0
  7 19  1  0  0  0  0
  7 23  1  0  0  0  0
  8 21  1  0  0  0  0
  8 45  1  0  0  0  0
  9 22  2  0  0  0  0
 10 11  1  0  0  0  0
 10 12  1  0  0  0  0
 10 31  1  0  0  0  0
 11 13  1  0  0  0  0
 11 32  1  0  0  0  0
 12 14  1  0  0  0  0
 12 33  1  0  0  0  0
 13 15  1  0  0  0  0
 13 34  1  0  0  0  0
 14 35  1  0  0  0  0
 15 36  1  0  0  0  0
 15 37  1  0  0  0  0
 16 17  1  0  0  0  0
 16 18  2  0  0  0  0
 17 19  2  0  0  0  0
 17 42  1  0  0  0  0
 18 21  1  0  0  0  0
 18 43  1  0  0  0  0
 19 20  1  0  0  0  0
 20 21  2  0  0  0  0
 20 22  1  0  0  0  0
 22 24  1  0  0  0  0
 23 24  2  0  0  0  0
 23 25  1  0  0  0  0
 24 44  1  0  0  0  0
 25 26  2  0  0  0  0
 25 27  1  0  0  0  0
 26 28  1  0  0  0  0
 26 46  1  0  0  0  0
 27 29  2  0  0  0  0
 27 47  1  0  0  0  0
 28 30  2  0  0  0  0
 28 48  1  0  0  0  0
 29 30  1  0  0  0  0
 29 49  1  0  0  0  0
 30 50  1  0  0  0  0
M  END
> <PUBCHEM_COMPOUND_CID>
15558425

> <PUBCHEM_CONFORMER_RMSD>
0.8

> <PUBCHEM_CONFORMER_DIVERSEORDER>
3
166
115
94
59
28
158
132
149
130
79
155
71
133
128
38
118
34
159
45
162
164
60
160
113
18
119
84
151
153
32
2
29
165
148
46
12
131
24
138
152
69
154
106
70
83
114
81
129
42
143
9
127
136
122
141
56
92
63
57
51
13
22
33
14
7
145
161
112
74
123
58
1
95
100
4
90
62
157
16
61
67
27
6
78
126
64
144
75
135
21
101
109
80
102
163
15
125
68
110
120
140
23
65
66
116
104
88
146
108
124
25
82
139
86
97
98
20
26
5
37
96
87
142
117
134
105
89
99
44
8
39
73
103
107
156
150
91
54
52
17
50
19
31
10
85
43
147
77
49
53
93
137
121
72
55
30
11
48
47
76
111
35
41
40
36

> <PUBCHEM_MMFF94_PARTIAL_CHARGES>
43
1 -0.56
10 0.28
11 0.28
12 0.28
13 0.28
14 0.56
15 0.28
16 0.08
17 -0.15
18 -0.15
19 0.08
2 -0.36
20 0.09
21 0.08
22 0.47
23 0.05
24 -0.14
25 0.03
26 -0.15
27 -0.15
28 -0.15
29 -0.15
3 -0.68
30 -0.15
38 0.4
39 0.4
4 -0.68
40 0.4
41 0.4
42 0.15
43 0.15
44 0.15
45 0.45
46 0.15
47 0.15
48 0.15
49 0.15
5 -0.68
50 0.15
6 -0.68
7 -0.16
8 -0.53
9 -0.57

> <PUBCHEM_EFFECTIVE_ROTOR_COUNT>
5.2

> <PUBCHEM_PHARMACOPHORE_FEATURES>
17
1 1 acceptor
1 2 acceptor
1 3 acceptor
1 3 donor
1 4 acceptor
1 4 donor
1 5 acceptor
1 5 donor
1 6 acceptor
1 6 donor
1 7 acceptor
1 8 donor
1 9 acceptor
6 1 10 11 12 13 14 rings
6 16 17 18 19 20 21 rings
6 25 26 27 28 29 30 rings
6 7 19 20 22 23 24 rings

> <PUBCHEM_HEAVY_ATOM_COUNT>
30

> <PUBCHEM_ATOM_DEF_STEREO_COUNT>
4

> <PUBCHEM_ATOM_UDEF_STEREO_COUNT>
1

> <PUBCHEM_BOND_DEF_STEREO_COUNT>
0

> <PUBCHEM_BOND_UDEF_STEREO_COUNT>
0

> <PUBCHEM_ISOTOPIC_ATOM_COUNT>
0

> <PUBCHEM_COMPONENT_COUNT>
1

> <PUBCHEM_CACTVS_TAUTO_COUNT>
5

> <PUBCHEM_CONFORMER_ID>
00ED671900000003

> <PUBCHEM_MMFF94_ENERGY>
100.555

> <PUBCHEM_FEATURE_SELFOVERLAP>
86.368

> <PUBCHEM_SHAPE_FINGERPRINT>
10319926 262 14979964674226058972
10577160 103 16154005612087523158
10622 236 18341890766540179875
10670039 82 14851598864910666022
11135926 11 18191879027155531588
11211813 128 18270963441868499338
11227688 84 18047476621826856594
11410812 94 16081645562210877966
11497681 19 18200036132703493870
12107183 9 18269572546046201505
12166972 35 18040160608471998230
12342043 65 17388564832485295683
12390115 104 9294705624535922840
12422481 6 17202770284925426302
12633257 1 15769769178062518787
13540713 5 18266485160134550016
13673619 4 17531262672763516899
13782708 43 17821729481083292739
13911987 19 17756446102712381204
1454969 45 18410578397359471132
15163728 17 13551757262473310712
15183329 4 15719391703331403586
15320294 125 17489588974489544359
1813 80 18273225191654398516
19315092 285 17703787050646309256
19319366 153 16905508863976317927
20028762 73 18273216378957091558
21033650 10 15936407806062497493
22393880 68 17531239565206552299
23536364 44 17968651610247922853
23559900 14 18188214311543903616
23569914 152 17904730355796784279
2838139 119 12612762319482469302
314194 84 18412833499232822082
34797466 226 16588312764523913661
3882209 13 17103374309405982906
4015057 19 18334864969032695385
46194498 28 17386289920956925716
613672 6 18334284354321929472
6431902 208 18338516335791216498
70251023 43 18335704923166031784
7970288 3 18412263943129933378
86090 222 14598783045378199654

> <PUBCHEM_SHAPE_MULTIPOLES>
564.56
15.81
3.94
1.85
2.54
2.29
-0.91
-17.94
-0.15
4.85
-0.48
-4.21
-0.5
-0.8

> <PUBCHEM_SHAPE_SELFOVERLAP>
1237.21

> <PUBCHEM_SHAPE_VOLUME>
301.7

> <PUBCHEM_COORDINATE_TYPE>
2
5
10

$$$$
