6400641
  -OEChem-09122006463D

 15 16  0     0  0  0  0  0  0999 V2000
   -1.1928   -1.0844   -0.0006 N   0  0  0  0  0  0  0  0  0  0  0  0
   -1.2203    1.1383    0.0002 N   0  0  0  0  0  0  0  0  0  0  0  0
   -3.3017   -0.0840    0.0005 N   0  0  0  0  0  0  0  0  0  0  0  0
    2.4496   -0.6920    0.0006 N   0  0  0  0  0  0  0  0  0  0  0  0
    2.4359    0.6969   -0.0002 N   0  0  0  0  0  0  0  0  0  0  0  0
    0.1217   -0.6995   -0.0004 C   0  0  0  0  0  0  0  0  0  0  0  0
    0.0796    0.6890    0.0001 C   0  0  0  0  0  0  0  0  0  0  0  0
   -1.9571    0.0496   -0.0001 C   0  0  0  0  0  0  0  0  0  0  0  0
    1.3066   -1.4079    0.0001 C   0  0  0  0  0  0  0  0  0  0  0  0
    1.2785    1.3941   -0.0002 C   0  0  0  0  0  0  0  0  0  0  0  0
   -1.5374   -2.0352   -0.0006 H   0  0  0  0  0  0  0  0  0  0  0  0
    1.3772   -2.4857    0.0003 H   0  0  0  0  0  0  0  0  0  0  0  0
    1.3506    2.4732   -0.0004 H   0  0  0  0  0  0  0  0  0  0  0  0
   -3.7630   -0.9886    0.0003 H   0  0  0  0  0  0  0  0  0  0  0  0
   -3.9152    0.7245    0.0010 H   0  0  0  0  0  0  0  0  0  0  0  0
  1  6  1  0  0  0  0
  1  8  1  0  0  0  0
  1 11  1  0  0  0  0
  2  7  1  0  0  0  0
  2  8  2  0  0  0  0
  3  8  1  0  0  0  0
  3 14  1  0  0  0  0
  3 15  1  0  0  0  0
  4  5  2  0  0  0  0
  4  9  1  0  0  0  0
  5 10  1  0  0  0  0
  6  7  1  0  0  0  0
  6  9  2  0  0  0  0
  7 10  2  0  0  0  0
  9 12  1  0  0  0  0
 10 13  1  0  0  0  0
M  END
> <PUBCHEM_COMPOUND_CID>
6400641

> <PUBCHEM_CONFORMER_RMSD>
0.4

> <PUBCHEM_CONFORMER_DIVERSEORDER>
1

> <PUBCHEM_MMFF94_PARTIAL_CHARGES>
15
1 0.03
10 0.16
11 0.27
12 0.15
13 0.15
14 0.4
15 0.4
2 -0.57
3 -0.88
4 -0.31
5 -0.31
6 -0.15
7 0.23
8 0.27
9 0.16

> <PUBCHEM_EFFECTIVE_ROTOR_COUNT>
0

> <PUBCHEM_PHARMACOPHORE_FEATURES>
5
1 1 donor
1 3 donor
4 1 2 3 8 cation
5 1 2 6 7 8 rings
6 4 5 6 7 9 10 rings

> <PUBCHEM_HEAVY_ATOM_COUNT>
10

> <PUBCHEM_ATOM_DEF_STEREO_COUNT>
0

> <PUBCHEM_ATOM_UDEF_STEREO_COUNT>
0

> <PUBCHEM_BOND_DEF_STEREO_COUNT>
0

> <PUBCHEM_BOND_UDEF_STEREO_COUNT>
0

> <PUBCHEM_ISOTOPIC_ATOM_COUNT>
0

> <PUBCHEM_COMPONENT_COUNT>
1

> <PUBCHEM_CACTVS_TAUTO_COUNT>
4

> <PUBCHEM_CONFORMER_ID>
0061AA8100000001

> <PUBCHEM_MMFF94_ENERGY>
15.7649

> <PUBCHEM_FEATURE_SELFOVERLAP>
25.532

> <PUBCHEM_SHAPE_FINGERPRINT>
12897270 3 18410012147610383887
14325111 11 18410574006990401409
16945 1 18410573989483341700
21040471 1 18194402427398817248
23235685 24 18336823194947030164
23402655 69 18267567037053324749
23552423 10 18261674869291215678
2748010 2 18410293626882061870
29004967 10 18261398844596231832
5084963 1 18343581815423491609
528886 8 18411414055032250354

> <PUBCHEM_SHAPE_MULTIPOLES>
180.89
3.61
1.43
0.57
1.44
0.01
0
-0.07
0
-0.52
0
-0.01
0
0

> <PUBCHEM_SHAPE_SELFOVERLAP>
397.998

> <PUBCHEM_SHAPE_VOLUME>
97.8

> <PUBCHEM_COORDINATE_TYPE>
2
5
10

$$$$
