554001
  -OEChem-09122005452D

135138  0     1  0  0  0  0  0999 V2000
    5.6616   -5.3345    0.0000 Si  0  0  0  0  0  0  0  0  0  0  0  0
    3.8108   -3.6609    0.0000 Si  0  0  0  0  0  0  0  0  0  0  0  0
    8.2597   -4.8345    0.0000 Si  0  0  0  0  0  0  0  0  0  0  0  0
    4.7181    0.1373    0.0000 Si  0  0  0  0  0  0  0  0  0  0  0  0
   10.8578   -0.3345    0.0000 Si  0  0  0  0  0  0  0  0  0  0  0  0
   10.4917    2.0315    0.0000 Si  0  0  0  0  0  0  0  0  0  0  0  0
    3.0000    5.2006    0.0000 Si  0  0  0  0  0  0  0  0  0  0  0  0
    6.5276   -1.8345    0.0000 O   0  0  0  0  0  0  0  0  0  0  0  0
    6.5276   -4.8345    0.0000 O   0  0  0  0  0  0  0  0  0  0  0  0
    4.7956   -3.8345    0.0000 O   0  0  0  0  0  0  0  0  0  0  0  0
    8.2597   -3.8345    0.0000 O   0  0  0  0  0  0  0  0  0  0  0  0
    8.2597   -1.8345    0.0000 O   0  0  0  0  0  0  0  0  0  0  0  0
    5.3608   -0.6288    0.0000 O   0  0  0  0  0  0  0  0  0  0  0  0
    4.0340   -1.7420    0.0000 O   0  0  0  0  0  0  0  0  0  0  0  0
    9.9917   -0.8345    0.0000 O   0  0  0  0  0  0  0  0  0  0  0  0
    9.9917    1.1655    0.0000 O   0  0  0  0  0  0  0  0  0  0  0  0
    6.4837    1.1723    0.0000 O   0  0  0  0  0  0  0  0  0  0  0  0
    8.7857    3.0672    0.0000 O   0  0  0  0  0  0  0  0  0  0  0  0
    3.0038    4.2006    0.0000 O   0  0  0  0  0  0  0  0  0  0  0  0
    6.5276   -3.8345    0.0000 C   0  0  3  0  0  0  0  0  0  0  0  0
    5.6616   -3.3345    0.0000 C   0  0  3  0  0  0  0  0  0  0  0  0
    7.3937   -3.3345    0.0000 C   0  0  3  0  0  0  0  0  0  0  0  0
    5.6616   -2.3345    0.0000 C   0  0  3  0  0  0  0  0  0  0  0  0
    7.3937   -2.3345    0.0000 C   0  0  3  0  0  0  0  0  0  0  0  0
    5.0188   -1.5685    0.0000 C   0  0  0  0  0  0  0  0  0  0  0  0
    6.1616   -6.2005    0.0000 C   0  0  0  0  0  0  0  0  0  0  0  0
    4.7956   -5.8345    0.0000 C   0  0  0  0  0  0  0  0  0  0  0  0
    5.1616   -4.4685    0.0000 C   0  0  0  0  0  0  0  0  0  0  0  0
    3.6371   -4.6456    0.0000 C   0  0  0  0  0  0  0  0  0  0  0  0
    3.9844   -2.6761    0.0000 C   0  0  0  0  0  0  0  0  0  0  0  0
    2.8260   -3.4872    0.0000 C   0  0  0  0  0  0  0  0  0  0  0  0
    9.2597   -4.8345    0.0000 C   0  0  0  0  0  0  0  0  0  0  0  0
    8.2597   -5.8345    0.0000 C   0  0  0  0  0  0  0  0  0  0  0  0
    7.2597   -4.8345    0.0000 C   0  0  0  0  0  0  0  0  0  0  0  0
    8.2597   -0.8345    0.0000 C   0  0  0  0  0  0  0  0  0  0  0  0
    9.1257   -0.3345    0.0000 C   0  0  0  0  0  0  0  0  0  0  0  0
    7.3937   -0.3345    0.0000 C   0  0  0  0  0  0  0  0  0  0  0  0
    4.0753    0.9033    0.0000 C   0  0  0  0  0  0  0  0  0  0  0  0
    5.4841    0.7800    0.0000 C   0  0  0  0  0  0  0  0  0  0  0  0
    3.9520   -0.5055    0.0000 C   0  0  0  0  0  0  0  0  0  0  0  0
    9.1257    0.6655    0.0000 C   0  0  0  0  0  0  0  0  0  0  0  0
    7.3937    0.6655    0.0000 C   0  0  0  0  0  0  0  0  0  0  0  0
    8.2597    1.1655    0.0000 C   0  0  0  0  0  0  0  0  0  0  0  0
    8.2758    2.2070    0.0000 C   0  0  0  0  0  0  0  0  0  0  0  0
   11.3578   -1.2005    0.0000 C   0  0  0  0  0  0  0  0  0  0  0  0
   10.3578    0.5315    0.0000 C   0  0  0  0  0  0  0  0  0  0  0  0
   11.7238    0.1655    0.0000 C   0  0  0  0  0  0  0  0  0  0  0  0
    6.4756    2.2139    0.0000 C   0  0  0  0  0  0  0  0  0  0  0  0
    7.3777    2.7347    0.0000 C   0  0  0  0  0  0  0  0  0  0  0  0
   11.3578    1.5315    0.0000 C   0  0  0  0  0  0  0  0  0  0  0  0
   10.9917    2.8975    0.0000 C   0  0  0  0  0  0  0  0  0  0  0  0
    9.6257    2.5315    0.0000 C   0  0  0  0  0  0  0  0  0  0  0  0
    5.6077    2.7106    0.0000 C   0  0  0  0  0  0  0  0  0  0  0  0
    5.6038    3.7106    0.0000 C   0  0  0  0  0  0  0  0  0  0  0  0
    4.7436    2.2072    0.0000 C   0  0  0  0  0  0  0  0  0  0  0  0
    4.7359    4.2072    0.0000 C   0  0  0  0  0  0  0  0  0  0  0  0
    3.8756    2.7039    0.0000 C   0  0  0  0  0  0  0  0  0  0  0  0
    3.8718    3.7039    0.0000 C   0  0  0  0  0  0  0  0  0  0  0  0
    2.9961    6.2005    0.0000 C   0  0  0  0  0  0  0  0  0  0  0  0
    2.0000    5.1967    0.0000 C   0  0  0  0  0  0  0  0  0  0  0  0
    4.0000    5.2044    0.0000 C   0  0  0  0  0  0  0  0  0  0  0  0
    5.9907   -4.1445    0.0000 H   0  0  0  0  0  0  0  0  0  0  0  0
    5.1247   -3.0245    0.0000 H   0  0  0  0  0  0  0  0  0  0  0  0
    7.3937   -3.9545    0.0000 H   0  0  0  0  0  0  0  0  0  0  0  0
    5.7693   -1.7239    0.0000 H   0  0  0  0  0  0  0  0  0  0  0  0
    7.9306   -2.6445    0.0000 H   0  0  0  0  0  0  0  0  0  0  0  0
    5.6247   -6.5105    0.0000 H   0  0  0  0  0  0  0  0  0  0  0  0
    6.4716   -6.7375    0.0000 H   0  0  0  0  0  0  0  0  0  0  0  0
    6.6986   -5.8905    0.0000 H   0  0  0  0  0  0  0  0  0  0  0  0
    4.4856   -5.2976    0.0000 H   0  0  0  0  0  0  0  0  0  0  0  0
    4.2586   -6.1445    0.0000 H   0  0  0  0  0  0  0  0  0  0  0  0
    5.1056   -6.3714    0.0000 H   0  0  0  0  0  0  0  0  0  0  0  0
    5.6986   -4.1585    0.0000 H   0  0  0  0  0  0  0  0  0  0  0  0
    4.8516   -3.9316    0.0000 H   0  0  0  0  0  0  0  0  0  0  0  0
    4.6247   -4.7785    0.0000 H   0  0  0  0  0  0  0  0  0  0  0  0
    3.0265   -4.5379    0.0000 H   0  0  0  0  0  0  0  0  0  0  0  0
    3.5294   -5.2562    0.0000 H   0  0  0  0  0  0  0  0  0  0  0  0
    4.2477   -4.7533    0.0000 H   0  0  0  0  0  0  0  0  0  0  0  0
    4.5950   -2.7837    0.0000 H   0  0  0  0  0  0  0  0  0  0  0  0
    4.0921   -2.0655    0.0000 H   0  0  0  0  0  0  0  0  0  0  0  0
    3.3738   -2.5684    0.0000 H   0  0  0  0  0  0  0  0  0  0  0  0
    2.9336   -2.8766    0.0000 H   0  0  0  0  0  0  0  0  0  0  0  0
    2.2154   -3.3796    0.0000 H   0  0  0  0  0  0  0  0  0  0  0  0
    2.7183   -4.0978    0.0000 H   0  0  0  0  0  0  0  0  0  0  0  0
    9.2597   -5.4545    0.0000 H   0  0  0  0  0  0  0  0  0  0  0  0
    9.8797   -4.8345    0.0000 H   0  0  0  0  0  0  0  0  0  0  0  0
    9.2597   -4.2145    0.0000 H   0  0  0  0  0  0  0  0  0  0  0  0
    7.6397   -5.8345    0.0000 H   0  0  0  0  0  0  0  0  0  0  0  0
    8.2597   -6.4545    0.0000 H   0  0  0  0  0  0  0  0  0  0  0  0
    8.8797   -5.8345    0.0000 H   0  0  0  0  0  0  0  0  0  0  0  0
    7.2597   -4.2145    0.0000 H   0  0  0  0  0  0  0  0  0  0  0  0
    6.6397   -4.8345    0.0000 H   0  0  0  0  0  0  0  0  0  0  0  0
    7.2597   -5.4545    0.0000 H   0  0  0  0  0  0  0  0  0  0  0  0
    6.8567   -0.6445    0.0000 H   0  0  0  0  0  0  0  0  0  0  0  0
    4.5502    1.3018    0.0000 H   0  0  0  0  0  0  0  0  0  0  0  0
    3.6767    1.3782    0.0000 H   0  0  0  0  0  0  0  0  0  0  0  0
    3.6003    0.5048    0.0000 H   0  0  0  0  0  0  0  0  0  0  0  0
    5.8826    0.3051    0.0000 H   0  0  0  0  0  0  0  0  0  0  0  0
    5.9591    1.1786    0.0000 H   0  0  0  0  0  0  0  0  0  0  0  0
    5.0856    1.2550    0.0000 H   0  0  0  0  0  0  0  0  0  0  0  0
    3.5535   -0.0306    0.0000 H   0  0  0  0  0  0  0  0  0  0  0  0
    3.4771   -0.9041    0.0000 H   0  0  0  0  0  0  0  0  0  0  0  0
    4.3505   -0.9805    0.0000 H   0  0  0  0  0  0  0  0  0  0  0  0
   10.8208   -1.5105    0.0000 H   0  0  0  0  0  0  0  0  0  0  0  0
   11.6678   -1.7375    0.0000 H   0  0  0  0  0  0  0  0  0  0  0  0
   11.8947   -0.8905    0.0000 H   0  0  0  0  0  0  0  0  0  0  0  0
   10.8947    0.8415    0.0000 H   0  0  0  0  0  0  0  0  0  0  0  0
   10.0478    1.0684    0.0000 H   0  0  0  0  0  0  0  0  0  0  0  0
    9.8208    0.2215    0.0000 H   0  0  0  0  0  0  0  0  0  0  0  0
   12.0338   -0.3715    0.0000 H   0  0  0  0  0  0  0  0  0  0  0  0
   12.2607    0.4755    0.0000 H   0  0  0  0  0  0  0  0  0  0  0  0
   11.4138    0.7024    0.0000 H   0  0  0  0  0  0  0  0  0  0  0  0
    7.3801    3.3547    0.0000 H   0  0  0  0  0  0  0  0  0  0  0  0
   11.0478    0.9946    0.0000 H   0  0  0  0  0  0  0  0  0  0  0  0
   11.8947    1.2215    0.0000 H   0  0  0  0  0  0  0  0  0  0  0  0
   11.6678    2.0684    0.0000 H   0  0  0  0  0  0  0  0  0  0  0  0
   11.5287    2.5875    0.0000 H   0  0  0  0  0  0  0  0  0  0  0  0
   11.3017    3.4345    0.0000 H   0  0  0  0  0  0  0  0  0  0  0  0
   10.4548    3.2075    0.0000 H   0  0  0  0  0  0  0  0  0  0  0  0
    9.9357    3.0684    0.0000 H   0  0  0  0  0  0  0  0  0  0  0  0
    9.0888    2.8415    0.0000 H   0  0  0  0  0  0  0  0  0  0  0  0
    9.3157    1.9946    0.0000 H   0  0  0  0  0  0  0  0  0  0  0  0
    6.1396    4.0226    0.0000 H   0  0  0  0  0  0  0  0  0  0  0  0
    4.7460    1.5873    0.0000 H   0  0  0  0  0  0  0  0  0  0  0  0
    4.7335    4.8272    0.0000 H   0  0  0  0  0  0  0  0  0  0  0  0
    3.3399    2.3918    0.0000 H   0  0  0  0  0  0  0  0  0  0  0  0
    3.6161    6.2029    0.0000 H   0  0  0  0  0  0  0  0  0  0  0  0
    2.9938    6.8205    0.0000 H   0  0  0  0  0  0  0  0  0  0  0  0
    2.3761    6.1982    0.0000 H   0  0  0  0  0  0  0  0  0  0  0  0
    1.9976    5.8167    0.0000 H   0  0  0  0  0  0  0  0  0  0  0  0
    1.3800    5.1943    0.0000 H   0  0  0  0  0  0  0  0  0  0  0  0
    2.0024    4.5767    0.0000 H   0  0  0  0  0  0  0  0  0  0  0  0
    4.0024    4.5844    0.0000 H   0  0  0  0  0  0  0  0  0  0  0  0
    4.6200    5.2068    0.0000 H   0  0  0  0  0  0  0  0  0  0  0  0
    3.9976    5.8244    0.0000 H   0  0  0  0  0  0  0  0  0  0  0  0
  1  9  1  0  0  0  0
  1 26  1  0  0  0  0
  1 27  1  0  0  0  0
  1 28  1  0  0  0  0
  2 10  1  0  0  0  0
  2 29  1  0  0  0  0
  2 30  1  0  0  0  0
  2 31  1  0  0  0  0
  3 11  1  0  0  0  0
  3 32  1  0  0  0  0
  3 33  1  0  0  0  0
  3 34  1  0  0  0  0
  4 13  1  0  0  0  0
  4 38  1  0  0  0  0
  4 39  1  0  0  0  0
  4 40  1  0  0  0  0
  5 15  1  0  0  0  0
  5 45  1  0  0  0  0
  5 46  1  0  0  0  0
  5 47  1  0  0  0  0
  6 16  1  0  0  0  0
  6 50  1  0  0  0  0
  6 51  1  0  0  0  0
  6 52  1  0  0  0  0
  7 19  1  0  0  0  0
  7 59  1  0  0  0  0
  7 60  1  0  0  0  0
  7 61  1  0  0  0  0
  8 23  1  0  0  0  0
  8 24  1  0  0  0  0
  9 20  1  0  0  0  0
 10 21  1  0  0  0  0
 11 22  1  0  0  0  0
 12 24  1  0  0  0  0
 12 35  1  0  0  0  0
 13 25  1  0  0  0  0
 14 25  2  0  0  0  0
 15 36  1  0  0  0  0
 16 41  1  0  0  0  0
 17 42  1  0  0  0  0
 17 48  1  0  0  0  0
 18 44  2  0  0  0  0
 19 58  1  0  0  0  0
 20 21  1  0  0  0  0
 20 22  1  0  0  0  0
 20 62  1  0  0  0  0
 21 23  1  0  0  0  0
 21 63  1  0  0  0  0
 22 24  1  0  0  0  0
 22 64  1  0  0  0  0
 23 25  1  0  0  0  0
 23 65  1  0  0  0  0
 24 66  1  0  0  0  0
 26 67  1  0  0  0  0
 26 68  1  0  0  0  0
 26 69  1  0  0  0  0
 27 70  1  0  0  0  0
 27 71  1  0  0  0  0
 27 72  1  0  0  0  0
 28 73  1  0  0  0  0
 28 74  1  0  0  0  0
 28 75  1  0  0  0  0
 29 76  1  0  0  0  0
 29 77  1  0  0  0  0
 29 78  1  0  0  0  0
 30 79  1  0  0  0  0
 30 80  1  0  0  0  0
 30 81  1  0  0  0  0
 31 82  1  0  0  0  0
 31 83  1  0  0  0  0
 31 84  1  0  0  0  0
 32 85  1  0  0  0  0
 32 86  1  0  0  0  0
 32 87  1  0  0  0  0
 33 88  1  0  0  0  0
 33 89  1  0  0  0  0
 33 90  1  0  0  0  0
 34 91  1  0  0  0  0
 34 92  1  0  0  0  0
 34 93  1  0  0  0  0
 35 36  2  0  0  0  0
 35 37  1  0  0  0  0
 36 41  1  0  0  0  0
 37 42  2  0  0  0  0
 37 94  1  0  0  0  0
 38 95  1  0  0  0  0
 38 96  1  0  0  0  0
 38 97  1  0  0  0  0
 39 98  1  0  0  0  0
 39 99  1  0  0  0  0
 39100  1  0  0  0  0
 40101  1  0  0  0  0
 40102  1  0  0  0  0
 40103  1  0  0  0  0
 41 43  2  0  0  0  0
 42 43  1  0  0  0  0
 43 44  1  0  0  0  0
 44 49  1  0  0  0  0
 45104  1  0  0  0  0
 45105  1  0  0  0  0
 45106  1  0  0  0  0
 46107  1  0  0  0  0
 46108  1  0  0  0  0
 46109  1  0  0  0  0
 47110  1  0  0  0  0
 47111  1  0  0  0  0
 47112  1  0  0  0  0
 48 49  2  0  0  0  0
 48 53  1  0  0  0  0
 49113  1  0  0  0  0
 50114  1  0  0  0  0
 50115  1  0  0  0  0
 50116  1  0  0  0  0
 51117  1  0  0  0  0
 51118  1  0  0  0  0
 51119  1  0  0  0  0
 52120  1  0  0  0  0
 52121  1  0  0  0  0
 52122  1  0  0  0  0
 53 54  2  0  0  0  0
 53 55  1  0  0  0  0
 54 56  1  0  0  0  0
 54123  1  0  0  0  0
 55 57  2  0  0  0  0
 55124  1  0  0  0  0
 56 58  2  0  0  0  0
 56125  1  0  0  0  0
 57 58  1  0  0  0  0
 57126  1  0  0  0  0
 59127  1  0  0  0  0
 59128  1  0  0  0  0
 59129  1  0  0  0  0
 60130  1  0  0  0  0
 60131  1  0  0  0  0
 60132  1  0  0  0  0
 61133  1  0  0  0  0
 61134  1  0  0  0  0
 61135  1  0  0  0  0
M  END
> <PUBCHEM_COMPOUND_CID>
554001

> <PUBCHEM_COMPOUND_CANONICALIZED>
1

> <PUBCHEM_CACTVS_COMPLEXITY>
1530

> <PUBCHEM_CACTVS_HBOND_ACCEPTOR>
12

> <PUBCHEM_CACTVS_HBOND_DONOR>
0

> <PUBCHEM_CACTVS_ROTATABLE_BOND>
18

> <PUBCHEM_CACTVS_SUBSKEYS>
AAADcfB8PAwAAAAAAAAAAAAAAAAAAAAAAAA0YIEAAAAAAACBQAAAGhAAAEAADBSwmANyDoAABAGIAqDSCAICCAAkIAAIiAFGiMgdJzaENR6iOWKl4BUOqQfK7LzOIQABCAAIQABCAAIQABCAAAAAAAAAAA==

> <PUBCHEM_IUPAC_OPENEYE_NAME>
trimethylsilyl 6-[4-oxo-5,6-bis(trimethylsilyloxy)-2-(4-trimethylsilyloxyphenyl)chromen-7-yl]oxy-3,4,5-tris(trimethylsilyloxy)tetrahydropyran-2-carboxylate

> <PUBCHEM_IUPAC_CAS_NAME>
6-[[4-oxo-5,6-bis(trimethylsilyloxy)-2-(4-trimethylsilyloxyphenyl)-1-benzopyran-7-yl]oxy]-3,4,5-tris(trimethylsilyloxy)-2-oxanecarboxylic acid trimethylsilyl ester

> <PUBCHEM_IUPAC_NAME_MARKUP>
trimethylsilyl 6-[4-oxo-5,6-bis(trimethylsilyloxy)-2-(4-trimethylsilyloxyphenyl)chromen-7-yl]oxy-3,4,5-tris(trimethylsilyloxy)oxane-2-carboxylate

> <PUBCHEM_IUPAC_NAME>
trimethylsilyl 6-[4-oxo-5,6-bis(trimethylsilyloxy)-2-(4-trimethylsilyloxyphenyl)chromen-7-yl]oxy-3,4,5-tris(trimethylsilyloxy)oxane-2-carboxylate

> <PUBCHEM_IUPAC_SYSTEMATIC_NAME>
trimethylsilyl 6-[4-oxidanylidene-5,6-bis(trimethylsilyloxy)-2-(4-trimethylsilyloxyphenyl)chromen-7-yl]oxy-3,4,5-tris(trimethylsilyloxy)oxane-2-carboxylate

> <PUBCHEM_IUPAC_TRADITIONAL_NAME>
6-[4-keto-5,6-bis(trimethylsilyloxy)-2-(4-trimethylsilyloxyphenyl)chromen-7-yl]oxy-3,4,5-tris(trimethylsilyloxy)tetrahydropyran-2-carboxylic acid trimethylsilyl ester

> <PUBCHEM_IUPAC_INCHI>
InChI=1S/C42H74O12Si7/c1-55(2,3)48-29-24-22-28(23-25-29)31-26-30(43)34-32(45-31)27-33(35(49-56(4,5)6)36(34)50-57(7,8)9)46-42-40(53-60(16,17)18)38(52-59(13,14)15)37(51-58(10,11)12)39(47-42)41(44)54-61(19,20)21/h22-27,37-40,42H,1-21H3

> <PUBCHEM_IUPAC_INCHIKEY>
AKSFRIZGMLTODI-UHFFFAOYSA-N

> <PUBCHEM_EXACT_MASS>
966.356514

> <PUBCHEM_MOLECULAR_FORMULA>
C42H74O12Si7

> <PUBCHEM_MOLECULAR_WEIGHT>
967.6

> <PUBCHEM_OPENEYE_CAN_SMILES>
C[Si](C)(C)OC1C(C(OC(C1O[Si](C)(C)C)OC2=C(C(=C3C(=C2)OC(=CC3=O)C4=CC=C(C=C4)O[Si](C)(C)C)O[Si](C)(C)C)O[Si](C)(C)C)C(=O)O[Si](C)(C)C)O[Si](C)(C)C

> <PUBCHEM_OPENEYE_ISO_SMILES>
C[Si](C)(C)OC1C(C(OC(C1O[Si](C)(C)C)OC2=C(C(=C3C(=C2)OC(=CC3=O)C4=CC=C(C=C4)O[Si](C)(C)C)O[Si](C)(C)C)O[Si](C)(C)C)C(=O)O[Si](C)(C)C)O[Si](C)(C)C

> <PUBCHEM_CACTVS_TPSA>
126

> <PUBCHEM_MONOISOTOPIC_WEIGHT>
966.356514

> <PUBCHEM_TOTAL_CHARGE>
0

> <PUBCHEM_HEAVY_ATOM_COUNT>
61

> <PUBCHEM_ATOM_DEF_STEREO_COUNT>
0

> <PUBCHEM_ATOM_UDEF_STEREO_COUNT>
5

> <PUBCHEM_BOND_DEF_STEREO_COUNT>
0

> <PUBCHEM_BOND_UDEF_STEREO_COUNT>
0

> <PUBCHEM_ISOTOPIC_ATOM_COUNT>
0

> <PUBCHEM_COMPONENT_COUNT>
1

> <PUBCHEM_CACTVS_TAUTO_COUNT>
-1

> <PUBCHEM_COORDINATE_TYPE>
1
5
255

> <PUBCHEM_BONDANNOTATIONS>
21  10  3
22  11  3
24  12  3
17  42  8
17  48  8
23  25  3
35  36  8
35  37  8
36  41  8
37  42  8
41  43  8
42  43  8
43  44  8
44  49  8
48  49  8
53  54  8
53  55  8
54  56  8
55  57  8
56  58  8
57  58  8
20  9  3

$$$$
