195481
  -OEChem-09092002033D

 60 63  0     1  0  0  0  0  0999 V2000
   -1.2175   -1.2632    0.2809 O   0  0  0  0  0  0  0  0  0  0  0  0
   -4.7066   -1.3755   -0.8479 O   0  0  0  0  0  0  0  0  0  0  0  0
   -4.2121   -4.0885    0.0211 O   0  0  0  0  0  0  0  0  0  0  0  0
   -1.4339   -4.8699   -0.3621 O   0  0  0  0  0  0  0  0  0  0  0  0
    1.4706   -1.8574    0.3150 O   0  0  0  0  0  0  0  0  0  0  0  0
   -0.5667    1.2399    0.5118 O   0  0  0  0  0  0  0  0  0  0  0  0
   -6.2077    0.2726   -1.2445 O   0  0  0  0  0  0  0  0  0  0  0  0
   -1.4502    3.7394    1.1264 O   0  0  0  0  0  0  0  0  0  0  0  0
   -4.1128    4.4021    0.7995 O   0  0  0  0  0  0  0  0  0  0  0  0
    3.0285   -2.8527    1.6868 O   0  0  0  0  0  0  0  0  0  0  0  0
    7.1410   -0.2662    0.0085 O   0  0  0  0  0  0  0  0  0  0  0  0
    3.3488    2.6066   -0.5431 O   0  0  0  0  0  0  0  0  0  0  0  0
    6.0869    2.2072   -0.6579 O   0  0  0  0  0  0  0  0  0  0  0  0
   -3.5379   -1.7728   -0.1031 C   0  0  2  0  0  0  0  0  0  0  0  0
   -2.3751   -0.8507   -0.4431 C   0  0  1  0  0  0  0  0  0  0  0  0
   -3.1878   -3.2171   -0.4596 C   0  0  1  0  0  0  0  0  0  0  0  0
   -1.8491   -3.6137    0.1670 C   0  0  2  0  0  0  0  0  0  0  0  0
   -0.7701   -2.5624   -0.1203 C   0  0  2  0  0  0  0  0  0  0  0  0
   -2.8019    0.5471   -0.0811 C   0  0  0  0  0  0  0  0  0  0  0  0
    0.5212   -2.8579    0.6356 C   0  0  0  0  0  0  0  0  0  0  0  0
   -4.1480    0.9026   -0.2619 C   0  0  0  0  0  0  0  0  0  0  0  0
   -5.1155   -0.0777   -0.8171 C   0  0  0  0  0  0  0  0  0  0  0  0
   -1.8971    1.5131    0.3764 C   0  0  0  0  0  0  0  0  0  0  0  0
   -4.5845    2.1980    0.0361 C   0  0  0  0  0  0  0  0  0  0  0  0
   -2.3356    2.8034    0.6774 C   0  0  0  0  0  0  0  0  0  0  0  0
   -3.6766    3.1437    0.5113 C   0  0  0  0  0  0  0  0  0  0  0  0
    2.6922   -1.9714    0.9111 C   0  0  0  0  0  0  0  0  0  0  0  0
    3.5916   -0.8655    0.4956 C   0  0  0  0  0  0  0  0  0  0  0  0
   -1.2940    4.9136    0.3338 C   0  0  0  0  0  0  0  0  0  0  0  0
    3.0390    0.3565    0.1709 C   0  0  0  0  0  0  0  0  0  0  0  0
    4.9518   -1.0932    0.4474 C   0  0  0  0  0  0  0  0  0  0  0  0
    5.7962   -0.0535    0.0577 C   0  0  0  0  0  0  0  0  0  0  0  0
    3.8833    1.3961   -0.2191 C   0  0  0  0  0  0  0  0  0  0  0  0
    5.2620    1.1912   -0.2755 C   0  0  0  0  0  0  0  0  0  0  0  0
    7.6780   -0.7358   -1.2264 C   0  0  0  0  0  0  0  0  0  0  0  0
    2.9898    2.8120   -1.9080 C   0  0  0  0  0  0  0  0  0  0  0  0
   -3.7963   -1.7309    0.9650 H   0  0  0  0  0  0  0  0  0  0  0  0
   -2.1581   -0.8542   -1.5203 H   0  0  0  0  0  0  0  0  0  0  0  0
   -3.1588   -3.3509   -1.5482 H   0  0  0  0  0  0  0  0  0  0  0  0
   -1.9818   -3.7427    1.2481 H   0  0  0  0  0  0  0  0  0  0  0  0
   -0.5330   -2.5291   -1.1925 H   0  0  0  0  0  0  0  0  0  0  0  0
    0.9153   -3.8417    0.3569 H   0  0  0  0  0  0  0  0  0  0  0  0
    0.3362   -2.8322    1.7164 H   0  0  0  0  0  0  0  0  0  0  0  0
   -5.0528   -3.7888   -0.3652 H   0  0  0  0  0  0  0  0  0  0  0  0
   -1.3082   -4.7651   -1.3207 H   0  0  0  0  0  0  0  0  0  0  0  0
   -5.6268    2.4746   -0.1028 H   0  0  0  0  0  0  0  0  0  0  0  0
   -0.1131    2.0399    0.8294 H   0  0  0  0  0  0  0  0  0  0  0  0
   -5.0673    4.4564    0.6211 H   0  0  0  0  0  0  0  0  0  0  0  0
   -1.9242    5.7171    0.7252 H   0  0  0  0  0  0  0  0  0  0  0  0
   -0.2509    5.2347    0.4104 H   0  0  0  0  0  0  0  0  0  0  0  0
   -1.5177    4.7332   -0.7236 H   0  0  0  0  0  0  0  0  0  0  0  0
    1.9706    0.5370    0.2205 H   0  0  0  0  0  0  0  0  0  0  0  0
    5.3725   -2.0615    0.7038 H   0  0  0  0  0  0  0  0  0  0  0  0
    5.5493    3.0034   -0.8094 H   0  0  0  0  0  0  0  0  0  0  0  0
    7.4848   -0.0173   -2.0293 H   0  0  0  0  0  0  0  0  0  0  0  0
    8.7595   -0.8471   -1.1096 H   0  0  0  0  0  0  0  0  0  0  0  0
    7.2515   -1.7105   -1.4837 H   0  0  0  0  0  0  0  0  0  0  0  0
    2.1922    2.1214   -2.1998 H   0  0  0  0  0  0  0  0  0  0  0  0
    2.6215    3.8359   -2.0147 H   0  0  0  0  0  0  0  0  0  0  0  0
    3.8571    2.6816   -2.5629 H   0  0  0  0  0  0  0  0  0  0  0  0
  1 15  1  0  0  0  0
  1 18  1  0  0  0  0
  2 14  1  0  0  0  0
  2 22  1  0  0  0  0
  3 16  1  0  0  0  0
  3 44  1  0  0  0  0
  4 17  1  0  0  0  0
  4 45  1  0  0  0  0
  5 20  1  0  0  0  0
  5 27  1  0  0  0  0
  6 23  1  0  0  0  0
  6 47  1  0  0  0  0
  7 22  2  0  0  0  0
  8 25  1  0  0  0  0
  8 29  1  0  0  0  0
  9 26  1  0  0  0  0
  9 48  1  0  0  0  0
 10 27  2  0  0  0  0
 11 32  1  0  0  0  0
 11 35  1  0  0  0  0
 12 33  1  0  0  0  0
 12 36  1  0  0  0  0
 13 34  1  0  0  0  0
 13 54  1  0  0  0  0
 14 15  1  0  0  0  0
 14 16  1  0  0  0  0
 14 37  1  0  0  0  0
 15 19  1  0  0  0  0
 15 38  1  0  0  0  0
 16 17  1  0  0  0  0
 16 39  1  0  0  0  0
 17 18  1  0  0  0  0
 17 40  1  0  0  0  0
 18 20  1  0  0  0  0
 18 41  1  0  0  0  0
 19 21  1  0  0  0  0
 19 23  2  0  0  0  0
 20 42  1  0  0  0  0
 20 43  1  0  0  0  0
 21 22  1  0  0  0  0
 21 24  2  0  0  0  0
 23 25  1  0  0  0  0
 24 26  1  0  0  0  0
 24 46  1  0  0  0  0
 25 26  2  0  0  0  0
 27 28  1  0  0  0  0
 28 30  2  0  0  0  0
 28 31  1  0  0  0  0
 29 49  1  0  0  0  0
 29 50  1  0  0  0  0
 29 51  1  0  0  0  0
 30 33  1  0  0  0  0
 30 52  1  0  0  0  0
 31 32  2  0  0  0  0
 31 53  1  0  0  0  0
 32 34  1  0  0  0  0
 33 34  2  0  0  0  0
 35 55  1  0  0  0  0
 35 56  1  0  0  0  0
 35 57  1  0  0  0  0
 36 58  1  0  0  0  0
 36 59  1  0  0  0  0
 36 60  1  0  0  0  0
M  END
> <PUBCHEM_COMPOUND_CID>
195481

> <PUBCHEM_CONFORMER_RMSD>
1

> <PUBCHEM_CONFORMER_DIVERSEORDER>
1
6
33
54
19
51
53
15
22
10
35
57
20
48
52
26
30
34
14
29
46
43
50
58
39
40
21
55
12
4
8
38
36
17
24
7
13
45
25
42
37
28
32
31
16
18
44
49
3
5
23
41
27
9
11
2
56
47

> <PUBCHEM_MMFF94_PARTIAL_CHARGES>
44
1 -0.56
10 -0.57
11 -0.36
12 -0.36
13 -0.53
14 0.28
15 0.42
16 0.28
17 0.28
18 0.28
19 -0.14
2 -0.43
20 0.28
21 0.09
22 0.63
23 0.08
24 -0.15
25 0.08
26 0.08
27 0.63
28 0.09
29 0.28
3 -0.68
30 -0.15
31 -0.15
32 0.08
33 0.08
34 0.08
35 0.28
36 0.28
4 -0.68
44 0.4
45 0.4
46 0.15
47 0.45
48 0.45
5 -0.43
52 0.15
53 0.15
54 0.45
6 -0.53
7 -0.57
8 -0.36
9 -0.53

> <PUBCHEM_EFFECTIVE_ROTOR_COUNT>
8

> <PUBCHEM_PHARMACOPHORE_FEATURES>
17
1 1 acceptor
1 10 acceptor
1 11 acceptor
1 12 acceptor
1 13 donor
1 3 acceptor
1 3 donor
1 4 acceptor
1 4 donor
1 6 donor
1 7 acceptor
1 8 acceptor
1 9 donor
6 1 14 15 16 17 18 rings
6 19 21 23 24 25 26 rings
6 2 14 15 19 21 22 rings
6 28 30 31 32 33 34 rings

> <PUBCHEM_HEAVY_ATOM_COUNT>
36

> <PUBCHEM_ATOM_DEF_STEREO_COUNT>
5

> <PUBCHEM_ATOM_UDEF_STEREO_COUNT>
0

> <PUBCHEM_BOND_DEF_STEREO_COUNT>
0

> <PUBCHEM_BOND_UDEF_STEREO_COUNT>
0

> <PUBCHEM_ISOTOPIC_ATOM_COUNT>
0

> <PUBCHEM_COMPONENT_COUNT>
1

> <PUBCHEM_CACTVS_TAUTO_COUNT>
27

> <PUBCHEM_CONFORMER_ID>
0002FB9900000001

> <PUBCHEM_MMFF94_ENERGY>
141.8318

> <PUBCHEM_FEATURE_SELFOVERLAP>
86.34

> <PUBCHEM_SHAPE_FINGERPRINT>
10411042 1 18051691337653922423
10439779 11 18338786846048360144
10670039 82 18340767053299016728
11513181 2 18057884636953809902
12107183 9 18119518848445452314
12788726 201 18271518728644657683
12978246 48 18337389327281470089
13617811 41 18337654400548645537
13911987 19 18337655440104304847
14117953 113 17689142414282927405
14363568 33 17327188048865827707
14394314 77 18339647857752441913
14790565 3 18196372525056452953
14840074 17 17603874381812102348
14931854 50 18411973646358306229
14932702 115 18200035178023099849
15001296 14 18262230140265657104
15064981 194 18189067519703449431
15183329 4 18411703171695238502
15250474 111 18336537236203771978
15297060 5 18130792196249755195
15320467 1 18411135797245007392
15351339 4 17974840976080946904
15400415 2 18123471571019639360
15968369 153 17986656259160511659
15968369 26 16967996325875286109
19611394 137 18044103582151399787
21133410 127 17684095682294137596
23559900 14 18197488726447567473
245318 6 17968958434343291268
463206 1 18337392767655853321
6036956 94 18262524809271430453
6371009 1 18049980243640282011
6700243 42 17554363523337290590
7808743 9 18339921519887793970
9980921 221 18265357113207159772

> <PUBCHEM_SHAPE_MULTIPOLES>
664.56
15.41
6.24
1.05
21.09
0.65
-0.14
2.72
-4.03
-6.89
0.88
0.44
0.24
-2.56

> <PUBCHEM_SHAPE_SELFOVERLAP>
1449.459

> <PUBCHEM_SHAPE_VOLUME>
359.7

> <PUBCHEM_COORDINATE_TYPE>
2
5
10

$$$$
