101672539
  -OEChem-09092001482D

183192  0     1  0  0  0  0  0999 V2000
   14.9183    0.5603    0.0000 O   0  0  0  0  0  0  0  0  0  0  0  0
    6.8671   -0.9989    0.0000 O   0  0  0  0  0  0  0  0  0  0  0  0
   15.7802    2.1219    0.0000 O   0  0  0  0  0  0  0  0  0  0  0  0
    7.7331   -2.4989    0.0000 O   0  0  0  0  0  0  0  0  0  0  0  0
   16.0130    6.0200    0.0000 O   0  0  0  0  0  0  0  0  0  0  0  0
    5.1350   -1.9990    0.0000 O   0  0  0  0  0  0  0  0  0  0  0  0
   16.0397    4.2882    0.0000 O   0  0  0  0  0  0  0  0  0  0  0  0
    5.1350   -3.9990    0.0000 O   0  0  0  0  0  0  0  0  0  0  0  0
    6.8671   -4.9990    0.0000 O   0  0  0  0  0  0  0  0  0  0  0  0
   17.5262    5.1772    0.0000 O   0  0  0  0  0  0  0  0  0  0  0  0
    6.0010   -0.4989    0.0000 O   0  0  0  0  0  0  0  0  0  0  0  0
   16.9862    7.7673    0.0000 O   0  0  0  0  0  0  0  0  0  0  0  0
    5.1350   -4.9990    0.0000 O   0  0  0  0  0  0  0  0  0  0  0  0
    3.4030   -0.9989    0.0000 O   0  0  0  0  0  0  0  0  0  0  0  0
   18.9859    7.7981    0.0000 O   0  0  0  0  0  0  0  0  0  0  0  0
    3.4030    1.0010    0.0000 O   0  0  0  0  0  0  0  0  0  0  0  0
   20.0125    6.0817    0.0000 O   0  0  0  0  0  0  0  0  0  0  0  0
    6.8671   -6.9990    0.0000 O   0  0  0  0  0  0  0  0  0  0  0  0
    5.1350    2.0011    0.0000 O   0  0  0  0  0  0  0  0  0  0  0  0
    5.1350   -7.9990    0.0000 O   0  0  0  0  0  0  0  0  0  0  0  0
   20.0392    4.3499    0.0000 O   0  0  0  0  0  0  0  0  0  0  0  0
    6.8671    2.0011    0.0000 O   0  0  0  0  0  0  0  0  0  0  0  0
    3.4030   -6.9990    0.0000 O   0  0  0  0  0  0  0  0  0  0  0  0
    7.7331   -5.4990    0.0000 O   0  0  0  0  0  0  0  0  0  0  0  0
    2.5369   -5.4990    0.0000 O   0  0  0  0  0  0  0  0  0  0  0  0
    8.5991   -7.9990    0.0000 O   0  0  0  0  0  0  0  0  0  0  0  0
   10.3312   -6.9990    0.0000 O   0  0  0  0  0  0  0  0  0  0  0  0
   10.3312   -4.9990    0.0000 O   0  0  0  0  0  0  0  0  0  0  0  0
   11.3881    0.5708    0.0000 C   0  0  2  0  0  0  0  0  0  0  0  0
   10.5202    1.0675    0.0000 C   0  0  1  0  0  0  0  0  0  0  0  0
    9.6121    0.5571    0.0000 C   0  0  2  0  0  0  0  0  0  0  0  0
   12.2522    1.0742    0.0000 C   0  0  1  0  0  0  0  0  0  0  0  0
    9.6081   -0.4845    0.0000 C   0  0  1  0  0  0  0  0  0  0  0  0
   11.4082   -0.4706    0.0000 C   0  0  0  0  0  0  0  0  0  0  0  0
   12.2483    2.0742    0.0000 C   0  0  0  0  0  0  0  0  0  0  0  0
   13.1402    2.6122    0.0000 C   0  0  1  0  0  0  0  0  0  0  0  0
   10.5122   -1.0018    0.0000 C   0  0  0  0  0  0  0  0  0  0  0  0
    8.6748   -1.0378    0.0000 C   0  0  0  0  0  0  0  0  0  0  0  0
   14.0483    2.1019    0.0000 C   0  0  1  0  0  0  0  0  0  0  0  0
   13.1482    0.5429    0.0000 C   0  0  0  0  0  0  0  0  0  0  0  0
   10.5163    2.0675    0.0000 C   0  0  0  0  0  0  0  0  0  0  0  0
    8.6831    1.1176    0.0000 C   0  0  0  0  0  0  0  0  0  0  0  0
   14.0523    1.0603    0.0000 C   0  0  1  0  0  0  0  0  0  0  0  0
   12.0338   -0.1927    0.0000 C   0  0  0  0  0  0  0  0  0  0  0  0
    7.7331   -0.4989    0.0000 C   0  0  2  0  0  0  0  0  0  0  0  0
   11.3804    2.5708    0.0000 C   0  0  0  0  0  0  0  0  0  0  0  0
    9.6160    1.5571    0.0000 C   0  0  0  0  0  0  0  0  0  0  0  0
    7.7373    0.5860    0.0000 C   0  0  0  0  0  0  0  0  0  0  0  0
   12.5978    0.1358    0.0000 C   0  0  0  0  0  0  0  0  0  0  0  0
   13.1109    3.6968    0.0000 C   0  0  0  0  0  0  0  0  0  0  0  0
   14.9900    2.6408    0.0000 C   0  0  0  0  0  0  0  0  0  0  0  0
   14.0399    4.2574    0.0000 C   0  0  2  0  0  0  0  0  0  0  0  0
   14.9858    3.7258    0.0000 C   0  0  0  0  0  0  0  0  0  0  0  0
   14.9200    1.6120    0.0000 C   0  0  0  0  0  0  0  0  0  0  0  0
    9.1815   -1.9000    0.0000 C   0  0  0  0  0  0  0  0  0  0  0  0
    8.1815   -1.9077    0.0000 C   0  0  0  0  0  0  0  0  0  0  0  0
   14.5265    5.1310    0.0000 C   0  0  0  0  0  0  0  0  0  0  0  0
   13.5267    5.1156    0.0000 C   0  0  0  0  0  0  0  0  0  0  0  0
    6.8671   -1.9990    0.0000 C   0  0  2  0  0  0  0  0  0  0  0  0
   15.5264    5.1464    0.0000 C   0  0  0  0  0  0  0  0  0  0  0  0
    6.0010   -2.4989    0.0000 C   0  0  1  0  0  0  0  0  0  0  0  0
    6.0010   -3.4990    0.0000 C   0  0  2  0  0  0  0  0  0  0  0  0
    7.7331   -3.4990    0.0000 C   0  0  0  0  0  0  0  0  0  0  0  0
    6.8671   -3.9990    0.0000 C   0  0  2  0  0  0  0  0  0  0  0  0
   17.0129    6.0354    0.0000 C   0  0  2  0  0  0  0  0  0  0  0  0
    5.1350   -0.9989    0.0000 C   0  0  2  0  0  0  0  0  0  0  0  0
   17.4995    6.9091    0.0000 C   0  0  1  0  0  0  0  0  0  0  0  0
    4.2690   -0.4989    0.0000 C   0  0  1  0  0  0  0  0  0  0  0  0
    6.0010   -5.4990    0.0000 C   0  0  2  0  0  0  0  0  0  0  0  0
   18.4994    6.9245    0.0000 C   0  0  2  0  0  0  0  0  0  0  0  0
   18.5261    5.1927    0.0000 C   0  0  1  0  0  0  0  0  0  0  0  0
    4.2690    0.5011    0.0000 C   0  0  2  0  0  0  0  0  0  0  0  0
   19.0127    6.0663    0.0000 C   0  0  1  0  0  0  0  0  0  0  0  0
    6.0010    0.5011    0.0000 C   0  0  1  0  0  0  0  0  0  0  0  0
    5.1350    1.0010    0.0000 C   0  0  1  0  0  0  0  0  0  0  0  0
    6.0010   -6.4990    0.0000 C   0  0  1  0  0  0  0  0  0  0  0  0
    5.1350   -6.9990    0.0000 C   0  0  2  0  0  0  0  0  0  0  0  0
   19.0394    4.3344    0.0000 C   0  0  0  0  0  0  0  0  0  0  0  0
    4.2690   -5.4990    0.0000 C   0  0  1  0  0  0  0  0  0  0  0  0
    6.8671    1.0010    0.0000 C   0  0  0  0  0  0  0  0  0  0  0  0
    4.2690   -6.4990    0.0000 C   0  0  1  0  0  0  0  0  0  0  0  0
    3.4030   -4.9990    0.0000 C   0  0  0  0  0  0  0  0  0  0  0  0
    7.7331   -6.4990    0.0000 C   0  0  2  0  0  0  0  0  0  0  0  0
    8.5991   -6.9990    0.0000 C   0  0  1  0  0  0  0  0  0  0  0  0
    9.4651   -6.4990    0.0000 C   0  0  2  0  0  0  0  0  0  0  0  0
    8.5991   -4.9990    0.0000 C   0  0  0  0  0  0  0  0  0  0  0  0
    9.4651   -5.4990    0.0000 C   0  0  1  0  0  0  0  0  0  0  0  0
   11.2546    1.4953    0.0000 H   0  0  0  0  0  0  0  0  0  0  0  0
    9.6147   -1.3345    0.0000 H   0  0  0  0  0  0  0  0  0  0  0  0
   11.6284   -1.0502    0.0000 H   0  0  0  0  0  0  0  0  0  0  0  0
   12.0169   -0.3528    0.0000 H   0  0  0  0  0  0  0  0  0  0  0  0
   13.8680    3.0514    0.0000 H   0  0  0  0  0  0  0  0  0  0  0  0
   10.1167   -1.4793    0.0000 H   0  0  0  0  0  0  0  0  0  0  0  0
   10.9150   -1.4732    0.0000 H   0  0  0  0  0  0  0  0  0  0  0  0
   12.7454    0.0716    0.0000 H   0  0  0  0  0  0  0  0  0  0  0  0
   13.5437    0.0654    0.0000 H   0  0  0  0  0  0  0  0  0  0  0  0
   10.3020    2.6493    0.0000 H   0  0  0  0  0  0  0  0  0  0  0  0
    9.9061    1.9575    0.0000 H   0  0  0  0  0  0  0  0  0  0  0  0
    9.0895    1.5859    0.0000 H   0  0  0  0  0  0  0  0  0  0  0  0
    8.2913    1.5982    0.0000 H   0  0  0  0  0  0  0  0  0  0  0  0
   14.0511    0.4403    0.0000 H   0  0  0  0  0  0  0  0  0  0  0  0
   11.5604   -0.5931    0.0000 H   0  0  0  0  0  0  0  0  0  0  0  0
   12.4342   -0.6661    0.0000 H   0  0  0  0  0  0  0  0  0  0  0  0
   12.5072    0.2076    0.0000 H   0  0  0  0  0  0  0  0  0  0  0  0
    7.1968   -0.1879    0.0000 H   0  0  0  0  0  0  0  0  0  0  0  0
   11.3780    3.1908    0.0000 H   0  0  0  0  0  0  0  0  0  0  0  0
   10.2360    1.5547    0.0000 H   0  0  0  0  0  0  0  0  0  0  0  0
    9.6184    2.1771    0.0000 H   0  0  0  0  0  0  0  0  0  0  0  0
    8.9960    1.5595    0.0000 H   0  0  0  0  0  0  0  0  0  0  0  0
    7.5305    1.1705    0.0000 H   0  0  0  0  0  0  0  0  0  0  0  0
    7.1260    0.4823    0.0000 H   0  0  0  0  0  0  0  0  0  0  0  0
   12.0160   -0.0785    0.0000 H   0  0  0  0  0  0  0  0  0  0  0  0
   12.8121   -0.4460    0.0000 H   0  0  0  0  0  0  0  0  0  0  0  0
   13.1796    0.3501    0.0000 H   0  0  0  0  0  0  0  0  0  0  0  0
   12.8862    4.2747    0.0000 H   0  0  0  0  0  0  0  0  0  0  0  0
   12.5032    3.5743    0.0000 H   0  0  0  0  0  0  0  0  0  0  0  0
   15.2013    2.0579    0.0000 H   0  0  0  0  0  0  0  0  0  0  0  0
   15.6004    2.7492    0.0000 H   0  0  0  0  0  0  0  0  0  0  0  0
   15.5971    3.6220    0.0000 H   0  0  0  0  0  0  0  0  0  0  0  0
   15.1926    4.3102    0.0000 H   0  0  0  0  0  0  0  0  0  0  0  0
   14.5270    1.1324    0.0000 H   0  0  0  0  0  0  0  0  0  0  0  0
   15.3240    1.1416    0.0000 H   0  0  0  0  0  0  0  0  0  0  0  0
    8.6469   -2.2141    0.0000 H   0  0  0  0  0  0  0  0  0  0  0  0
    9.4956   -2.4345    0.0000 H   0  0  0  0  0  0  0  0  0  0  0  0
    9.7160   -1.5858    0.0000 H   0  0  0  0  0  0  0  0  0  0  0  0
    7.6422   -1.6018    0.0000 H   0  0  0  0  0  0  0  0  0  0  0  0
    7.8756   -2.4470    0.0000 H   0  0  0  0  0  0  0  0  0  0  0  0
    8.7208   -2.2135    0.0000 H   0  0  0  0  0  0  0  0  0  0  0  0
   14.6248    5.7432    0.0000 H   0  0  0  0  0  0  0  0  0  0  0  0
   13.9407    5.3340    0.0000 H   0  0  0  0  0  0  0  0  0  0  0  0
   14.9183   -0.0597    0.0000 H   0  0  0  0  0  0  0  0  0  0  0  0
   14.0587    5.4338    0.0000 H   0  0  0  0  0  0  0  0  0  0  0  0
   13.2084    5.6477    0.0000 H   0  0  0  0  0  0  0  0  0  0  0  0
   12.9946    4.7973    0.0000 H   0  0  0  0  0  0  0  0  0  0  0  0
    6.3301   -1.6890    0.0000 H   0  0  0  0  0  0  0  0  0  0  0  0
   16.3207    1.8182    0.0000 H   0  0  0  0  0  0  0  0  0  0  0  0
    6.0010   -1.8790    0.0000 H   0  0  0  0  0  0  0  0  0  0  0  0
    6.0010   -4.1190    0.0000 H   0  0  0  0  0  0  0  0  0  0  0  0
    7.9451   -4.0816    0.0000 H   0  0  0  0  0  0  0  0  0  0  0  0
    8.3437   -3.3913    0.0000 H   0  0  0  0  0  0  0  0  0  0  0  0
    7.4040   -4.3090    0.0000 H   0  0  0  0  0  0  0  0  0  0  0  0
   16.7112    5.4938    0.0000 H   0  0  0  0  0  0  0  0  0  0  0  0
    4.5981   -1.3090    0.0000 H   0  0  0  0  0  0  0  0  0  0  0  0
    4.5981   -3.6890    0.0000 H   0  0  0  0  0  0  0  0  0  0  0  0
   17.8012    7.4507    0.0000 H   0  0  0  0  0  0  0  0  0  0  0  0
    3.7320   -0.1889    0.0000 H   0  0  0  0  0  0  0  0  0  0  0  0
    6.5380   -5.8090    0.0000 H   0  0  0  0  0  0  0  0  0  0  0  0
   19.1193    6.9341    0.0000 H   0  0  0  0  0  0  0  0  0  0  0  0
   18.2244    4.6510    0.0000 H   0  0  0  0  0  0  0  0  0  0  0  0
    4.2690    1.1211    0.0000 H   0  0  0  0  0  0  0  0  0  0  0  0
   19.3143    6.6079    0.0000 H   0  0  0  0  0  0  0  0  0  0  0  0
    6.5380    0.1911    0.0000 H   0  0  0  0  0  0  0  0  0  0  0  0
    4.5981    1.3110    0.0000 H   0  0  0  0  0  0  0  0  0  0  0  0
    6.0010   -7.1190    0.0000 H   0  0  0  0  0  0  0  0  0  0  0  0
   17.2879    8.3090    0.0000 H   0  0  0  0  0  0  0  0  0  0  0  0
    2.8660   -0.6889    0.0000 H   0  0  0  0  0  0  0  0  0  0  0  0
    4.5981   -7.3090    0.0000 H   0  0  0  0  0  0  0  0  0  0  0  0
   18.4601    4.1134    0.0000 H   0  0  0  0  0  0  0  0  0  0  0  0
   19.1564    3.7256    0.0000 H   0  0  0  0  0  0  0  0  0  0  0  0
    4.2690   -4.8790    0.0000 H   0  0  0  0  0  0  0  0  0  0  0  0
    7.0791    0.4184    0.0000 H   0  0  0  0  0  0  0  0  0  0  0  0
    7.4776    1.1087    0.0000 H   0  0  0  0  0  0  0  0  0  0  0  0
   19.6059    7.8077    0.0000 H   0  0  0  0  0  0  0  0  0  0  0  0
    4.2690   -7.1190    0.0000 H   0  0  0  0  0  0  0  0  0  0  0  0
    3.4030    1.6211    0.0000 H   0  0  0  0  0  0  0  0  0  0  0  0
   20.3142    6.6234    0.0000 H   0  0  0  0  0  0  0  0  0  0  0  0
    5.6720    2.3110    0.0000 H   0  0  0  0  0  0  0  0  0  0  0  0
    3.8015   -4.5240    0.0000 H   0  0  0  0  0  0  0  0  0  0  0  0
    3.0044   -4.5240    0.0000 H   0  0  0  0  0  0  0  0  0  0  0  0
    7.1962   -6.1890    0.0000 H   0  0  0  0  0  0  0  0  0  0  0  0
    4.5981   -8.3090    0.0000 H   0  0  0  0  0  0  0  0  0  0  0  0
   20.3575    3.8178    0.0000 H   0  0  0  0  0  0  0  0  0  0  0  0
    7.4040    2.3110    0.0000 H   0  0  0  0  0  0  0  0  0  0  0  0
    3.4030   -7.6190    0.0000 H   0  0  0  0  0  0  0  0  0  0  0  0
    8.0622   -7.3090    0.0000 H   0  0  0  0  0  0  0  0  0  0  0  0
    2.0000   -5.1890    0.0000 H   0  0  0  0  0  0  0  0  0  0  0  0
   10.0021   -6.1890    0.0000 H   0  0  0  0  0  0  0  0  0  0  0  0
    8.9976   -4.5240    0.0000 H   0  0  0  0  0  0  0  0  0  0  0  0
    8.2006   -4.5240    0.0000 H   0  0  0  0  0  0  0  0  0  0  0  0
    9.4651   -4.8790    0.0000 H   0  0  0  0  0  0  0  0  0  0  0  0
    8.0622   -8.3090    0.0000 H   0  0  0  0  0  0  0  0  0  0  0  0
   10.8681   -6.6890    0.0000 H   0  0  0  0  0  0  0  0  0  0  0  0
   10.3312   -4.3790    0.0000 H   0  0  0  0  0  0  0  0  0  0  0  0
 43  1  1  6  0  0  0
  1131  1  0  0  0  0
 45  2  1  1  0  0  0
 59  2  1  6  0  0  0
  3 54  1  0  0  0  0
  3136  1  0  0  0  0
  4 59  1  0  0  0  0
  4 63  1  0  0  0  0
  5 60  1  0  0  0  0
 65  5  1  1  0  0  0
 61  6  1  1  0  0  0
 66  6  1  1  0  0  0
  7 60  2  0  0  0  0
 62  8  1  6  0  0  0
  8144  1  0  0  0  0
 64  9  1  6  0  0  0
 69  9  1  1  0  0  0
 10 65  1  0  0  0  0
 10 71  1  0  0  0  0
 11 66  1  0  0  0  0
 11 74  1  0  0  0  0
 67 12  1  6  0  0  0
 12155  1  0  0  0  0
 13 69  1  0  0  0  0
 13 79  1  0  0  0  0
 68 14  1  6  0  0  0
 14156  1  0  0  0  0
 70 15  1  1  0  0  0
 15163  1  0  0  0  0
 72 16  1  1  0  0  0
 16165  1  0  0  0  0
 73 17  1  6  0  0  0
 17166  1  0  0  0  0
 76 18  1  6  0  0  0
 83 18  1  6  0  0  0
 75 19  1  6  0  0  0
 19167  1  0  0  0  0
 77 20  1  1  0  0  0
 20171  1  0  0  0  0
 21 78  1  0  0  0  0
 21172  1  0  0  0  0
 22 80  1  0  0  0  0
 22173  1  0  0  0  0
 81 23  1  6  0  0  0
 23174  1  0  0  0  0
 24 83  1  0  0  0  0
 24 86  1  0  0  0  0
 25 82  1  0  0  0  0
 25176  1  0  0  0  0
 84 26  1  1  0  0  0
 26181  1  0  0  0  0
 85 27  1  6  0  0  0
 27182  1  0  0  0  0
 87 28  1  1  0  0  0
 28183  1  0  0  0  0
 29 30  1  0  0  0  0
 29 32  1  0  0  0  0
 29 34  1  0  0  0  0
 29 44  1  1  0  0  0
 30 31  1  0  0  0  0
 30 41  1  0  0  0  0
 30 88  1  6  0  0  0
 31 33  1  0  0  0  0
 31 42  1  0  0  0  0
 31 47  1  1  0  0  0
 32 35  1  0  0  0  0
 32 40  1  0  0  0  0
 32 49  1  6  0  0  0
 33 37  1  0  0  0  0
 33 38  1  0  0  0  0
 33 89  1  6  0  0  0
 34 37  1  0  0  0  0
 34 90  1  0  0  0  0
 34 91  1  0  0  0  0
 35 36  1  0  0  0  0
 35 46  2  0  0  0  0
 36 39  1  0  0  0  0
 36 50  1  0  0  0  0
 36 92  1  1  0  0  0
 37 93  1  0  0  0  0
 37 94  1  0  0  0  0
 38 45  1  0  0  0  0
 38 55  1  0  0  0  0
 38 56  1  0  0  0  0
 39 43  1  0  0  0  0
 39 51  1  0  0  0  0
 39 54  1  1  0  0  0
 40 43  1  0  0  0  0
 40 95  1  0  0  0  0
 40 96  1  0  0  0  0
 41 46  1  0  0  0  0
 41 97  1  0  0  0  0
 41 98  1  0  0  0  0
 42 48  1  0  0  0  0
 42 99  1  0  0  0  0
 42100  1  0  0  0  0
 43101  1  0  0  0  0
 44102  1  0  0  0  0
 44103  1  0  0  0  0
 44104  1  0  0  0  0
 45 48  1  0  0  0  0
 45105  1  0  0  0  0
 46106  1  0  0  0  0
 47107  1  0  0  0  0
 47108  1  0  0  0  0
 47109  1  0  0  0  0
 48110  1  0  0  0  0
 48111  1  0  0  0  0
 49112  1  0  0  0  0
 49113  1  0  0  0  0
 49114  1  0  0  0  0
 50 52  1  0  0  0  0
 50115  1  0  0  0  0
 50116  1  0  0  0  0
 51 53  1  0  0  0  0
 51117  1  0  0  0  0
 51118  1  0  0  0  0
 52 53  1  0  0  0  0
 52 57  1  0  0  0  0
 52 58  1  6  0  0  0
 53119  1  0  0  0  0
 53120  1  0  0  0  0
 54121  1  0  0  0  0
 54122  1  0  0  0  0
 55123  1  0  0  0  0
 55124  1  0  0  0  0
 55125  1  0  0  0  0
 56126  1  0  0  0  0
 56127  1  0  0  0  0
 56128  1  0  0  0  0
 57 60  1  0  0  0  0
 57129  1  0  0  0  0
 57130  1  0  0  0  0
 58132  1  0  0  0  0
 58133  1  0  0  0  0
 58134  1  0  0  0  0
 59 61  1  0  0  0  0
 59135  1  0  0  0  0
 61 62  1  0  0  0  0
 61137  1  0  0  0  0
 62 64  1  0  0  0  0
 62138  1  0  0  0  0
 63 64  1  0  0  0  0
 63139  1  0  0  0  0
 63140  1  0  0  0  0
 64141  1  0  0  0  0
 65 67  1  0  0  0  0
 65142  1  0  0  0  0
 66 68  1  0  0  0  0
 66143  1  0  0  0  0
 67 70  1  0  0  0  0
 67145  1  0  0  0  0
 68 72  1  0  0  0  0
 68146  1  0  0  0  0
 69 76  1  0  0  0  0
 69147  1  0  0  0  0
 70 73  1  0  0  0  0
 70148  1  0  0  0  0
 71 73  1  0  0  0  0
 71 78  1  1  0  0  0
 71149  1  0  0  0  0
 72 75  1  0  0  0  0
 72150  1  0  0  0  0
 73151  1  0  0  0  0
 74 75  1  0  0  0  0
 74 80  1  1  0  0  0
 74152  1  0  0  0  0
 75153  1  0  0  0  0
 76 77  1  0  0  0  0
 76154  1  0  0  0  0
 77 81  1  0  0  0  0
 77157  1  0  0  0  0
 78158  1  0  0  0  0
 78159  1  0  0  0  0
 79 81  1  0  0  0  0
 79 82  1  1  0  0  0
 79160  1  0  0  0  0
 80161  1  0  0  0  0
 80162  1  0  0  0  0
 81164  1  0  0  0  0
 82168  1  0  0  0  0
 82169  1  0  0  0  0
 83 84  1  0  0  0  0
 83170  1  0  0  0  0
 84 85  1  0  0  0  0
 84175  1  0  0  0  0
 85 87  1  0  0  0  0
 85177  1  0  0  0  0
 86 87  1  0  0  0  0
 86178  1  0  0  0  0
 86179  1  0  0  0  0
 87180  1  0  0  0  0
M  END
> <PUBCHEM_COMPOUND_CID>
101672539

> <PUBCHEM_COMPOUND_CANONICALIZED>
1

> <PUBCHEM_CACTVS_COMPLEXITY>
2410

> <PUBCHEM_CACTVS_HBOND_ACCEPTOR>
28

> <PUBCHEM_CACTVS_HBOND_DONOR>
17

> <PUBCHEM_CACTVS_ROTATABLE_BOND>
16

> <PUBCHEM_CACTVS_SUBSKEYS>
AAADcfB8PgAAAAAAAAAAAAAAAAAAAAAAAAA0aNGiQAAAAADAAAAAGgAACAAADxSwgAMCCAAABgCIAiDSCAAAAAAgAAAACAEAAAgREBIAAQAiQAAFgAAPAAPI6PyPgAAAAAAAAADAAAYAADAAAAAAAAAAAA==

> <PUBCHEM_IUPAC_OPENEYE_NAME>
[(2S,3R,4S,5S,6R)-3,4,5-trihydroxy-6-(hydroxymethyl)tetrahydropyran-2-yl] 2-[(2S,4aS,5R,6aR,6aS,6bR,8aR,10S,12aR,14bS)-10-[(2S,3R,4S,5S)-5-[(2S,3R,4S,5S,6R)-4,5-dihydroxy-6-(hydroxymethyl)-3-[(2S,3R,4S,5R)-3,4,5-trihydroxytetrahydropyran-2-yl]oxy-tetrahydropyran-2-yl]oxy-4-hydroxy-3-[(2S,3R,4S,5S,6R)-3,4,5-trihydroxy-6-(hydroxymethyl)tetrahydropyran-2-yl]oxy-tetrahydropyran-2-yl]oxy-5-hydroxy-4a-(hydroxymethyl)-2,6a,6b,9,9,12a-hexamethyl-1,3,4,5,6,6a,7,8,8a,10,11,12,13,14b-tetradecahydropicen-2-yl]acetate

> <PUBCHEM_IUPAC_CAS_NAME>
2-[(2S,4aS,5R,6aR,6aS,6bR,8aR,10S,12aR,14bS)-10-[[(2S,3R,4S,5S)-5-[[(2S,3R,4S,5S,6R)-4,5-dihydroxy-6-(hydroxymethyl)-3-[[(2S,3R,4S,5R)-3,4,5-trihydroxy-2-oxanyl]oxy]-2-oxanyl]oxy]-4-hydroxy-3-[[(2S,3R,4S,5S,6R)-3,4,5-trihydroxy-6-(hydroxymethyl)-2-oxanyl]oxy]-2-oxanyl]oxy]-5-hydroxy-4a-(hydroxymethyl)-2,6a,6b,9,9,12a-hexamethyl-1,3,4,5,6,6a,7,8,8a,10,11,12,13,14b-tetradecahydropicen-2-yl]acetic acid [(2S,3R,4S,5S,6R)-3,4,5-trihydroxy-6-(hydroxymethyl)-2-oxanyl] ester

> <PUBCHEM_IUPAC_NAME_MARKUP>
[(2<I>S</I>,3<I>R</I>,4<I>S</I>,5<I>S</I>,6<I>R</I>)-3,4,5-trihydroxy-6-(hydroxymethyl)oxan-2-yl] 2-[(2<I>S</I>,4<I>a</I><I>S</I>,5<I>R</I>,6<I>a</I><I>R</I>,6<I>a</I><I>S</I>,6<I>b</I><I>R</I>,8<I>a</I><I>R</I>,10<I>S</I>,12<I>a</I><I>R</I>,14<I>b</I><I>S</I>)-10-[(2<I>S</I>,3<I>R</I>,4<I>S</I>,5<I>S</I>)-5-[(2<I>S</I>,3<I>R</I>,4<I>S</I>,5<I>S</I>,6<I>R</I>)-4,5-dihydroxy-6-(hydroxymethyl)-3-[(2<I>S</I>,3<I>R</I>,4<I>S</I>,5<I>R</I>)-3,4,5-trihydroxyoxan-2-yl]oxyoxan-2-yl]oxy-4-hydroxy-3-[(2<I>S</I>,3<I>R</I>,4<I>S</I>,5<I>S</I>,6<I>R</I>)-3,4,5-trihydroxy-6-(hydroxymethyl)oxan-2-yl]oxyoxan-2-yl]oxy-5-hydroxy-4<I>a</I>-(hydroxymethyl)-2,6<I>a</I>,6<I>b</I>,9,9,12<I>a</I>-hexamethyl-1,3,4,5,6,6<I>a</I>,7,8,8<I>a</I>,10,11,12,13,14<I>b</I>-tetradecahydropicen-2-yl]acetate

> <PUBCHEM_IUPAC_NAME>
[(2S,3R,4S,5S,6R)-3,4,5-trihydroxy-6-(hydroxymethyl)oxan-2-yl] 2-[(2S,4aS,5R,6aR,6aS,6bR,8aR,10S,12aR,14bS)-10-[(2S,3R,4S,5S)-5-[(2S,3R,4S,5S,6R)-4,5-dihydroxy-6-(hydroxymethyl)-3-[(2S,3R,4S,5R)-3,4,5-trihydroxyoxan-2-yl]oxyoxan-2-yl]oxy-4-hydroxy-3-[(2S,3R,4S,5S,6R)-3,4,5-trihydroxy-6-(hydroxymethyl)oxan-2-yl]oxyoxan-2-yl]oxy-5-hydroxy-4a-(hydroxymethyl)-2,6a,6b,9,9,12a-hexamethyl-1,3,4,5,6,6a,7,8,8a,10,11,12,13,14b-tetradecahydropicen-2-yl]acetate

> <PUBCHEM_IUPAC_SYSTEMATIC_NAME>
[(2S,3R,4S,5S,6R)-6-(hydroxymethyl)-3,4,5-tris(oxidanyl)oxan-2-yl] 2-[(2S,4aS,5R,6aR,6aS,6bR,8aR,10S,12aR,14bS)-4a-(hydroxymethyl)-10-[(2S,3R,4S,5S)-5-[(2S,3R,4S,5S,6R)-6-(hydroxymethyl)-4,5-bis(oxidanyl)-3-[(2S,3R,4S,5R)-3,4,5-tris(oxidanyl)oxan-2-yl]oxy-oxan-2-yl]oxy-3-[(2S,3R,4S,5S,6R)-6-(hydroxymethyl)-3,4,5-tris(oxidanyl)oxan-2-yl]oxy-4-oxidanyl-oxan-2-yl]oxy-2,6a,6b,9,9,12a-hexamethyl-5-oxidanyl-1,3,4,5,6,6a,7,8,8a,10,11,12,13,14b-tetradecahydropicen-2-yl]ethanoate

> <PUBCHEM_IUPAC_TRADITIONAL_NAME>
2-[(2S,4aS,5R,6aR,6aS,6bR,8aR,10S,12aR,14bS)-10-[(2S,3R,4S,5S)-5-[(2S,3R,4S,5S,6R)-4,5-dihydroxy-6-methylol-3-[(2S,3R,4S,5R)-3,4,5-trihydroxytetrahydropyran-2-yl]oxy-tetrahydropyran-2-yl]oxy-4-hydroxy-3-[(2S,3R,4S,5S,6R)-3,4,5-trihydroxy-6-methylol-tetrahydropyran-2-yl]oxy-tetrahydropyran-2-yl]oxy-5-hydroxy-2,6a,6b,9,9,12a-hexamethyl-4a-methylol-1,3,4,5,6,6a,7,8,8a,10,11,12,13,14b-tetradecahydropicen-2-yl]acetic acid [(2S,3R,4S,5S,6R)-3,4,5-trihydroxy-6-methylol-tetrahydropyran-2-yl] ester

> <PUBCHEM_IUPAC_INCHI>
InChI=1S/C59H96O28/c1-54(2)31-9-12-57(5)32(8-7-24-25-15-55(3,13-14-59(25,23-63)33(65)16-58(24,57)6)17-35(66)85-50-45(76)41(72)37(68)27(18-60)80-50)56(31,4)11-10-34(54)84-52-47(87-51-46(77)42(73)38(69)28(19-61)81-51)40(71)30(22-79-52)83-53-48(43(74)39(70)29(20-62)82-53)86-49-44(75)36(67)26(64)21-78-49/h7,25-34,36-53,60-65,67-77H,8-23H2,1-6H3/t25-,26+,27+,28+,29+,30-,31-,32+,33+,34-,36-,37+,38+,39+,40-,41-,42-,43-,44+,45+,46+,47+,48+,49-,50-,51-,52-,53-,55-,56-,57+,58+,59+/m0/s1

> <PUBCHEM_IUPAC_INCHIKEY>
VTFSLTYXGRAUIX-JREXNQNJSA-N

> <PUBCHEM_XLOGP3_AA>
-2.1

> <PUBCHEM_EXACT_MASS>
1252.608812

> <PUBCHEM_MOLECULAR_FORMULA>
C59H96O28

> <PUBCHEM_MOLECULAR_WEIGHT>
1253.4

> <PUBCHEM_OPENEYE_CAN_SMILES>
CC1(C2CCC3(C(C2(CCC1OC4C(C(C(CO4)OC5C(C(C(C(O5)CO)O)O)OC6C(C(C(CO6)O)O)O)O)OC7C(C(C(C(O7)CO)O)O)O)C)CC=C8C3(CC(C9(C8CC(CC9)(C)CC(=O)OC1C(C(C(C(O1)CO)O)O)O)CO)O)C)C)C

> <PUBCHEM_OPENEYE_ISO_SMILES>
C[C@@]1(CC[C@]2([C@@H](C1)C3=CC[C@@H]4[C@]5(CC[C@@H](C([C@@H]5CC[C@]4([C@@]3(C[C@H]2O)C)C)(C)C)O[C@H]6[C@@H]([C@H]([C@H](CO6)O[C@H]7[C@@H]([C@H]([C@@H]([C@H](O7)CO)O)O)O[C@H]8[C@@H]([C@H]([C@@H](CO8)O)O)O)O)O[C@H]9[C@@H]([C@H]([C@@H]([C@H](O9)CO)O)O)O)C)CO)CC(=O)O[C@H]1[C@@H]([C@H]([C@@H]([C@H](O1)CO)O)O)O

> <PUBCHEM_CACTVS_TPSA>
453

> <PUBCHEM_MONOISOTOPIC_WEIGHT>
1252.608812

> <PUBCHEM_TOTAL_CHARGE>
0

> <PUBCHEM_HEAVY_ATOM_COUNT>
87

> <PUBCHEM_ATOM_DEF_STEREO_COUNT>
33

> <PUBCHEM_ATOM_UDEF_STEREO_COUNT>
0

> <PUBCHEM_BOND_DEF_STEREO_COUNT>
0

> <PUBCHEM_BOND_UDEF_STEREO_COUNT>
0

> <PUBCHEM_ISOTOPIC_ATOM_COUNT>
0

> <PUBCHEM_COMPONENT_COUNT>
1

> <PUBCHEM_CACTVS_TAUTO_COUNT>
-1

> <PUBCHEM_COORDINATE_TYPE>
1
5
255

> <PUBCHEM_BONDANNOTATIONS>
43  1  6
67  12  6
68  14  6
70  15  5
72  16  5
73  17  6
76  18  6
83  18  6
75  19  6
45  2  5
59  2  6
77  20  5
81  23  6
84  26  5
85  27  6
87  28  5
29  44  5
30  88  6
31  47  5
32  49  6
33  89  6
36  92  5
39  54  5
65  5  5
52  58  6
61  6  5
66  6  5
71  78  5
74  80  5
79  82  5
62  8  6
64  9  6
69  9  5

$$$$
