3083371
  -OEChem-09092001342D

161170  0     1  0  0  0  0  0999 V2000
    6.2799    2.7052    0.0000 O   0  0  0  0  0  0  0  0  0  0  0  0
    4.4275    5.1434    0.0000 O   0  0  0  0  0  0  0  0  0  0  0  0
   11.6748   -1.1516    0.0000 O   0  0  0  0  0  0  0  0  0  0  0  0
    2.0000    3.4575    0.0000 O   0  0  0  0  0  0  0  0  0  0  0  0
   12.5408    0.3484    0.0000 O   0  0  0  0  0  0  0  0  0  0  0  0
   13.4068   -2.1516    0.0000 O   0  0  0  0  0  0  0  0  0  0  0  0
   15.1389   -1.1516    0.0000 O   0  0  0  0  0  0  0  0  0  0  0  0
   15.1389    0.8484    0.0000 O   0  0  0  0  0  0  0  0  0  0  0  0
   11.6748   -2.1516    0.0000 O   0  0  0  0  0  0  0  0  0  0  0  0
   16.0049    0.3484    0.0000 O   0  0  0  0  0  0  0  0  0  0  0  0
   13.4068   -4.1516    0.0000 O   0  0  0  0  0  0  0  0  0  0  0  0
   16.0049    2.3484    0.0000 O   0  0  0  0  0  0  0  0  0  0  0  0
   16.8709   -2.1516    0.0000 O   0  0  0  0  0  0  0  0  0  0  0  0
   11.6748   -5.1516    0.0000 O   0  0  0  0  0  0  0  0  0  0  0  0
    9.9427   -4.1516    0.0000 O   0  0  0  0  0  0  0  0  0  0  0  0
   13.4068    1.8484    0.0000 O   0  0  0  0  0  0  0  0  0  0  0  0
   18.6030   -1.1516    0.0000 O   0  0  0  0  0  0  0  0  0  0  0  0
   18.6030    0.8484    0.0000 O   0  0  0  0  0  0  0  0  0  0  0  0
   13.4068    3.8484    0.0000 O   0  0  0  0  0  0  0  0  0  0  0  0
    9.0767   -2.6516    0.0000 O   0  0  0  0  0  0  0  0  0  0  0  0
   15.1389    4.8484    0.0000 O   0  0  0  0  0  0  0  0  0  0  0  0
   17.7370    2.3484    0.0000 O   0  0  0  0  0  0  0  0  0  0  0  0
    7.0321    2.5987    0.0000 C   0  0  2  0  0  0  0  0  0  0  0  0
    6.1642    2.1021    0.0000 C   0  0  3  0  0  0  0  0  0  0  0  0
    7.9402    2.0884    0.0000 C   0  0  1  0  0  0  0  0  0  0  0  0
    5.3001    2.6054    0.0000 C   0  0  3  0  0  0  0  0  0  0  0  0
    7.9442    1.0467    0.0000 C   0  0  1  0  0  0  0  0  0  0  0  0
    5.3039    3.6054    0.0000 C   0  0  3  0  0  0  0  0  0  0  0  0
    8.8775    0.4934    0.0000 C   0  0  2  0  0  0  0  0  0  0  0  0
    7.0360    3.5987    0.0000 C   0  0  0  0  0  0  0  0  0  0  0  0
    6.1441    1.0606    0.0000 C   0  0  0  0  0  0  0  0  0  0  0  0
    6.1719    4.1020    0.0000 C   0  0  0  0  0  0  0  0  0  0  0  0
    7.0401    0.5294    0.0000 C   0  0  0  0  0  0  0  0  0  0  0  0
    9.8192    1.0323    0.0000 C   0  0  3  0  0  0  0  0  0  0  0  0
    8.8692    2.6489    0.0000 C   0  0  0  0  0  0  0  0  0  0  0  0
    5.8826    3.3996    0.0000 C   0  0  0  0  0  0  0  0  0  0  0  0
    4.4041    2.0742    0.0000 C   0  0  0  0  0  0  0  0  0  0  0  0
    4.4121    4.1435    0.0000 C   0  0  2  0  0  0  0  0  0  0  0  0
    9.8150    2.1173    0.0000 C   0  0  0  0  0  0  0  0  0  0  0  0
    7.6778    3.3623    0.0000 C   0  0  0  0  0  0  0  0  0  0  0  0
    8.2785    3.0294    0.0000 C   0  0  0  0  0  0  0  0  0  0  0  0
   10.8044    0.4786    0.0000 C   0  0  0  0  0  0  0  0  0  0  0  0
    8.8557   -0.6365    0.0000 C   0  0  0  0  0  0  0  0  0  0  0  0
    3.5000    2.5915    0.0000 C   0  0  2  0  0  0  0  0  0  0  0  0
    3.5040    3.6331    0.0000 C   0  0  0  0  0  0  0  0  0  0  0  0
    8.0095   -0.0032    0.0000 C   0  0  0  0  0  0  0  0  0  0  0  0
   10.8088   -0.6516    0.0000 C   0  0  2  0  0  0  0  0  0  0  0  0
    9.8278   -1.2129    0.0000 C   0  0  0  0  0  0  0  0  0  0  0  0
   11.2977    1.3484    0.0000 C   0  0  0  0  0  0  0  0  0  0  0  0
   11.8044    0.4863    0.0000 C   0  0  0  0  0  0  0  0  0  0  0  0
    3.0000    1.7255    0.0000 C   0  0  0  0  0  0  0  0  0  0  0  0
    2.5000    2.5915    0.0000 C   0  0  0  0  0  0  0  0  0  0  0  0
   12.5408   -0.6516    0.0000 C   0  0  2  0  0  0  0  0  0  0  0  0
   13.4068   -1.1516    0.0000 C   0  0  1  0  0  0  0  0  0  0  0  0
   14.2729   -0.6516    0.0000 C   0  0  2  0  0  0  0  0  0  0  0  0
   13.4068    0.8484    0.0000 C   0  0  0  0  0  0  0  0  0  0  0  0
   14.2729    0.3484    0.0000 C   0  0  2  0  0  0  0  0  0  0  0  0
   12.5408   -2.6516    0.0000 C   0  0  2  0  0  0  0  0  0  0  0  0
   16.0049   -0.6516    0.0000 C   0  0  1  0  0  0  0  0  0  0  0  0
   12.5408   -3.6516    0.0000 C   0  0  1  0  0  0  0  0  0  0  0  0
   15.1389    1.8484    0.0000 C   0  0  2  0  0  0  0  0  0  0  0  0
   16.8709   -1.1516    0.0000 C   0  0  1  0  0  0  0  0  0  0  0  0
   11.6748   -4.1516    0.0000 C   0  0  2  0  0  0  0  0  0  0  0  0
   10.8088   -2.6516    0.0000 C   0  0  1  0  0  0  0  0  0  0  0  0
   10.8088   -3.6516    0.0000 C   0  0  1  0  0  0  0  0  0  0  0  0
   14.2729    2.3484    0.0000 C   0  0  1  0  0  0  0  0  0  0  0  0
   17.7370   -0.6516    0.0000 C   0  0  2  0  0  0  0  0  0  0  0  0
   16.8709    0.8484    0.0000 C   0  0  1  0  0  0  0  0  0  0  0  0
   17.7370    0.3484    0.0000 C   0  0  1  0  0  0  0  0  0  0  0  0
   14.2729    3.3484    0.0000 C   0  0  1  0  0  0  0  0  0  0  0  0
    9.9427   -2.1516    0.0000 C   0  0  0  0  0  0  0  0  0  0  0  0
   16.0049    3.3484    0.0000 C   0  0  2  0  0  0  0  0  0  0  0  0
   15.1389    3.8484    0.0000 C   0  0  2  0  0  0  0  0  0  0  0  0
   16.8709    1.8484    0.0000 C   0  0  0  0  0  0  0  0  0  0  0  0
   16.8709    3.8484    0.0000 C   0  0  0  0  0  0  0  0  0  0  0  0
    5.3025    1.9854    0.0000 H   0  0  0  0  0  0  0  0  0  0  0  0
    7.9376    0.1968    0.0000 H   0  0  0  0  0  0  0  0  0  0  0  0
    7.6461    3.4887    0.0000 H   0  0  0  0  0  0  0  0  0  0  0  0
    7.2503    4.1805    0.0000 H   0  0  0  0  0  0  0  0  0  0  0  0
    5.5354    1.1785    0.0000 H   0  0  0  0  0  0  0  0  0  0  0  0
    5.9238    0.4811    0.0000 H   0  0  0  0  0  0  0  0  0  0  0  0
    6.5722    4.5754    0.0000 H   0  0  0  0  0  0  0  0  0  0  0  0
    5.7752    4.5785    0.0000 H   0  0  0  0  0  0  0  0  0  0  0  0
    6.6373    0.0581    0.0000 H   0  0  0  0  0  0  0  0  0  0  0  0
    7.4356    0.0519    0.0000 H   0  0  0  0  0  0  0  0  0  0  0  0
   10.3537    1.3464    0.0000 H   0  0  0  0  0  0  0  0  0  0  0  0
    9.2609    3.1294    0.0000 H   0  0  0  0  0  0  0  0  0  0  0  0
    8.4628    3.1171    0.0000 H   0  0  0  0  0  0  0  0  0  0  0  0
    6.4859    3.5425    0.0000 H   0  0  0  0  0  0  0  0  0  0  0  0
    5.9164    4.0186    0.0000 H   0  0  0  0  0  0  0  0  0  0  0  0
    4.0086    1.5967    0.0000 H   0  0  0  0  0  0  0  0  0  0  0  0
    4.8069    1.6028    0.0000 H   0  0  0  0  0  0  0  0  0  0  0  0
    4.9543    4.4441    0.0000 H   0  0  0  0  0  0  0  0  0  0  0  0
   10.4263    2.0135    0.0000 H   0  0  0  0  0  0  0  0  0  0  0  0
   10.0218    2.7018    0.0000 H   0  0  0  0  0  0  0  0  0  0  0  0
    8.1513    2.9619    0.0000 H   0  0  0  0  0  0  0  0  0  0  0  0
    8.0782    3.8357    0.0000 H   0  0  0  0  0  0  0  0  0  0  0  0
    7.2044    3.7626    0.0000 H   0  0  0  0  0  0  0  0  0  0  0  0
    8.8620    2.8196    0.0000 H   0  0  0  0  0  0  0  0  0  0  0  0
    8.4884    3.6128    0.0000 H   0  0  0  0  0  0  0  0  0  0  0  0
    7.6951    3.2392    0.0000 H   0  0  0  0  0  0  0  0  0  0  0  0
    8.2470   -0.5187    0.0000 H   0  0  0  0  0  0  0  0  0  0  0  0
    8.6354   -1.2161    0.0000 H   0  0  0  0  0  0  0  0  0  0  0  0
    3.2972    4.2176    0.0000 H   0  0  0  0  0  0  0  0  0  0  0  0
    2.8928    3.5294    0.0000 H   0  0  0  0  0  0  0  0  0  0  0  0
    7.7016    0.5349    0.0000 H   0  0  0  0  0  0  0  0  0  0  0  0
    7.4714   -0.3112    0.0000 H   0  0  0  0  0  0  0  0  0  0  0  0
    8.3174   -0.5414    0.0000 H   0  0  0  0  0  0  0  0  0  0  0  0
   11.3451   -0.3406    0.0000 H   0  0  0  0  0  0  0  0  0  0  0  0
    9.4250   -1.6842    0.0000 H   0  0  0  0  0  0  0  0  0  0  0  0
   10.2233   -1.6904    0.0000 H   0  0  0  0  0  0  0  0  0  0  0  0
   11.8370    1.0426    0.0000 H   0  0  0  0  0  0  0  0  0  0  0  0
   11.6036    1.8877    0.0000 H   0  0  0  0  0  0  0  0  0  0  0  0
   10.7584    1.6543    0.0000 H   0  0  0  0  0  0  0  0  0  0  0  0
   11.8092   -0.1337    0.0000 H   0  0  0  0  0  0  0  0  0  0  0  0
   12.4244    0.4910    0.0000 H   0  0  0  0  0  0  0  0  0  0  0  0
   11.7996    1.1062    0.0000 H   0  0  0  0  0  0  0  0  0  0  0  0
    2.4631    2.0355    0.0000 H   0  0  0  0  0  0  0  0  0  0  0  0
    2.6900    1.1886    0.0000 H   0  0  0  0  0  0  0  0  0  0  0  0
    3.5369    1.4155    0.0000 H   0  0  0  0  0  0  0  0  0  0  0  0
    3.8954    5.4616    0.0000 H   0  0  0  0  0  0  0  0  0  0  0  0
    2.1900    2.0546    0.0000 H   0  0  0  0  0  0  0  0  0  0  0  0
   12.5408   -1.2716    0.0000 H   0  0  0  0  0  0  0  0  0  0  0  0
   13.9438   -1.4616    0.0000 H   0  0  0  0  0  0  0  0  0  0  0  0
   14.8098   -0.3416    0.0000 H   0  0  0  0  0  0  0  0  0  0  0  0
   13.8054    1.3234    0.0000 H   0  0  0  0  0  0  0  0  0  0  0  0
   13.0083    1.3234    0.0000 H   0  0  0  0  0  0  0  0  0  0  0  0
   14.2729    0.9684    0.0000 H   0  0  0  0  0  0  0  0  0  0  0  0
   13.0777   -2.9616    0.0000 H   0  0  0  0  0  0  0  0  0  0  0  0
   15.4680   -0.3416    0.0000 H   0  0  0  0  0  0  0  0  0  0  0  0
   12.5408   -4.2716    0.0000 H   0  0  0  0  0  0  0  0  0  0  0  0
   14.6020    1.5384    0.0000 H   0  0  0  0  0  0  0  0  0  0  0  0
   17.4079   -1.4616    0.0000 H   0  0  0  0  0  0  0  0  0  0  0  0
   12.2117   -4.4616    0.0000 H   0  0  0  0  0  0  0  0  0  0  0  0
   10.8088   -2.0316    0.0000 H   0  0  0  0  0  0  0  0  0  0  0  0
   10.8088   -4.2716    0.0000 H   0  0  0  0  0  0  0  0  0  0  0  0
   13.7359    2.6584    0.0000 H   0  0  0  0  0  0  0  0  0  0  0  0
   17.7370   -1.2716    0.0000 H   0  0  0  0  0  0  0  0  0  0  0  0
   13.9438   -3.8416    0.0000 H   0  0  0  0  0  0  0  0  0  0  0  0
   16.3340    1.1584    0.0000 H   0  0  0  0  0  0  0  0  0  0  0  0
   18.2739    0.0384    0.0000 H   0  0  0  0  0  0  0  0  0  0  0  0
   14.2729    3.9684    0.0000 H   0  0  0  0  0  0  0  0  0  0  0  0
   10.3413   -1.6766    0.0000 H   0  0  0  0  0  0  0  0  0  0  0  0
    9.5442   -1.6766    0.0000 H   0  0  0  0  0  0  0  0  0  0  0  0
   16.5418    3.0384    0.0000 H   0  0  0  0  0  0  0  0  0  0  0  0
   15.6758    4.1584    0.0000 H   0  0  0  0  0  0  0  0  0  0  0  0
   17.4079   -2.4616    0.0000 H   0  0  0  0  0  0  0  0  0  0  0  0
   12.2117   -5.4616    0.0000 H   0  0  0  0  0  0  0  0  0  0  0  0
    9.9427   -4.7716    0.0000 H   0  0  0  0  0  0  0  0  0  0  0  0
   12.8699    2.1584    0.0000 H   0  0  0  0  0  0  0  0  0  0  0  0
   16.6589    2.4310    0.0000 H   0  0  0  0  0  0  0  0  0  0  0  0
   16.2604    1.7407    0.0000 H   0  0  0  0  0  0  0  0  0  0  0  0
   19.1399   -0.8416    0.0000 H   0  0  0  0  0  0  0  0  0  0  0  0
   17.1809    3.3115    0.0000 H   0  0  0  0  0  0  0  0  0  0  0  0
   17.4079    4.1584    0.0000 H   0  0  0  0  0  0  0  0  0  0  0  0
   16.5609    4.3853    0.0000 H   0  0  0  0  0  0  0  0  0  0  0  0
   18.6030    1.4684    0.0000 H   0  0  0  0  0  0  0  0  0  0  0  0
   13.4068    4.4684    0.0000 H   0  0  0  0  0  0  0  0  0  0  0  0
    8.5398   -2.3416    0.0000 H   0  0  0  0  0  0  0  0  0  0  0  0
   15.6758    5.1584    0.0000 H   0  0  0  0  0  0  0  0  0  0  0  0
   17.7370    2.9684    0.0000 H   0  0  0  0  0  0  0  0  0  0  0  0
  1 24  1  0  0  0  0
  1 36  1  0  0  0  0
 38  2  1  6  0  0  0
  2121  1  0  0  0  0
 47  3  1  1  0  0  0
 53  3  1  6  0  0  0
  4 52  2  0  0  0  0
  5 53  1  0  0  0  0
  5 56  1  0  0  0  0
 54  6  1  1  0  0  0
 58  6  1  1  0  0  0
 55  7  1  6  0  0  0
 59  7  1  1  0  0  0
 57  8  1  6  0  0  0
 61  8  1  1  0  0  0
  9 58  1  0  0  0  0
  9 64  1  0  0  0  0
 10 59  1  0  0  0  0
 10 68  1  0  0  0  0
 60 11  1  6  0  0  0
 11139  1  0  0  0  0
 12 61  1  0  0  0  0
 12 72  1  0  0  0  0
 62 13  1  1  0  0  0
 13147  1  0  0  0  0
 63 14  1  1  0  0  0
 14148  1  0  0  0  0
 65 15  1  6  0  0  0
 15149  1  0  0  0  0
 66 16  1  6  0  0  0
 16150  1  0  0  0  0
 67 17  1  6  0  0  0
 17153  1  0  0  0  0
 69 18  1  1  0  0  0
 18157  1  0  0  0  0
 70 19  1  6  0  0  0
 19158  1  0  0  0  0
 20 71  1  0  0  0  0
 20159  1  0  0  0  0
 73 21  1  1  0  0  0
 21160  1  0  0  0  0
 22 74  1  0  0  0  0
 22161  1  0  0  0  0
 23 24  1  0  0  0  0
 23 25  1  0  0  0  0
 23 30  1  0  0  0  0
 23 40  1  6  0  0  0
 24 26  1  0  0  0  0
 24 31  1  0  0  0  0
 25 27  1  0  0  0  0
 25 35  1  0  0  0  0
 25 41  1  1  0  0  0
 26 28  1  0  0  0  0
 26 37  1  0  0  0  0
 26 76  1  0  0  0  0
 27 29  1  0  0  0  0
 27 33  1  0  0  0  0
 27 77  1  6  0  0  0
 28 32  1  0  0  0  0
 28 36  1  0  0  0  0
 28 38  1  0  0  0  0
 29 34  1  0  0  0  0
 29 43  1  0  0  0  0
 29 46  1  1  0  0  0
 30 32  1  0  0  0  0
 30 78  1  0  0  0  0
 30 79  1  0  0  0  0
 31 33  1  0  0  0  0
 31 80  1  0  0  0  0
 31 81  1  0  0  0  0
 32 82  1  0  0  0  0
 32 83  1  0  0  0  0
 33 84  1  0  0  0  0
 33 85  1  0  0  0  0
 34 39  1  0  0  0  0
 34 42  1  0  0  0  0
 34 86  1  0  0  0  0
 35 39  1  0  0  0  0
 35 87  1  0  0  0  0
 35 88  1  0  0  0  0
 36 89  1  0  0  0  0
 36 90  1  0  0  0  0
 37 44  1  0  0  0  0
 37 91  1  0  0  0  0
 37 92  1  0  0  0  0
 38 45  1  0  0  0  0
 38 93  1  0  0  0  0
 39 94  1  0  0  0  0
 39 95  1  0  0  0  0
 40 96  1  0  0  0  0
 40 97  1  0  0  0  0
 40 98  1  0  0  0  0
 41 99  1  0  0  0  0
 41100  1  0  0  0  0
 41101  1  0  0  0  0
 42 47  1  0  0  0  0
 42 49  1  0  0  0  0
 42 50  1  0  0  0  0
 43 48  1  0  0  0  0
 43102  1  0  0  0  0
 43103  1  0  0  0  0
 44 45  1  0  0  0  0
 44 51  1  1  0  0  0
 44 52  1  0  0  0  0
 45104  1  0  0  0  0
 45105  1  0  0  0  0
 46106  1  0  0  0  0
 46107  1  0  0  0  0
 46108  1  0  0  0  0
 47 48  1  0  0  0  0
 47109  1  0  0  0  0
 48110  1  0  0  0  0
 48111  1  0  0  0  0
 49112  1  0  0  0  0
 49113  1  0  0  0  0
 49114  1  0  0  0  0
 50115  1  0  0  0  0
 50116  1  0  0  0  0
 50117  1  0  0  0  0
 51118  1  0  0  0  0
 51119  1  0  0  0  0
 51120  1  0  0  0  0
 52122  1  0  0  0  0
 53 54  1  0  0  0  0
 53123  1  0  0  0  0
 54 55  1  0  0  0  0
 54124  1  0  0  0  0
 55 57  1  0  0  0  0
 55125  1  0  0  0  0
 56 57  1  0  0  0  0
 56126  1  0  0  0  0
 56127  1  0  0  0  0
 57128  1  0  0  0  0
 58 60  1  0  0  0  0
 58129  1  0  0  0  0
 59 62  1  0  0  0  0
 59130  1  0  0  0  0
 60 63  1  0  0  0  0
 60131  1  0  0  0  0
 61 66  1  0  0  0  0
 61132  1  0  0  0  0
 62 67  1  0  0  0  0
 62133  1  0  0  0  0
 63 65  1  0  0  0  0
 63134  1  0  0  0  0
 64 65  1  0  0  0  0
 64 71  1  1  0  0  0
 64135  1  0  0  0  0
 65136  1  0  0  0  0
 66 70  1  0  0  0  0
 66137  1  0  0  0  0
 67 69  1  0  0  0  0
 67138  1  0  0  0  0
 68 69  1  0  0  0  0
 68 74  1  6  0  0  0
 68140  1  0  0  0  0
 69141  1  0  0  0  0
 70 73  1  0  0  0  0
 70142  1  0  0  0  0
 71143  1  0  0  0  0
 71144  1  0  0  0  0
 72 73  1  0  0  0  0
 72 75  1  6  0  0  0
 72145  1  0  0  0  0
 73146  1  0  0  0  0
 74151  1  0  0  0  0
 74152  1  0  0  0  0
 75154  1  0  0  0  0
 75155  1  0  0  0  0
 75156  1  0  0  0  0
M  END
> <PUBCHEM_COMPOUND_CID>
3083371

> <PUBCHEM_COMPOUND_CANONICALIZED>
1

> <PUBCHEM_CACTVS_COMPLEXITY>
2060

> <PUBCHEM_CACTVS_HBOND_ACCEPTOR>
22

> <PUBCHEM_CACTVS_HBOND_DONOR>
12

> <PUBCHEM_CACTVS_ROTATABLE_BOND>
11

> <PUBCHEM_CACTVS_SUBSKEYS>
AAADcfB8PgAAAAAAAAAAAAAAAAAAASAAAAA0aNGjBIAAAEjAAAAAGgAACAAAD1SwgAMCCAAABgAIAAgQgAAAAAAAAAAAAAEAAAAREBIAAAAiQAAFAAAHAAHK7PzPgAAAAAAAAADAAAYAADAAAAAAAAAAAA==

> <PUBCHEM_IUPAC_OPENEYE_NAME>
(4S,5R,10S,13R,14R,20S,22S)-22-hydroxy-4,5,9,9,13,20-hexamethyl-10-[(2S,3R,4S,5S)-4-[(2R,3R,4S,5S,6R)-3,4,5-trihydroxy-6-(hydroxymethyl)tetrahydropyran-2-yl]oxy-3-[(2S,3R,4S,5S,6R)-3,4,5-trihydroxy-6-(hydroxymethyl)tetrahydropyran-2-yl]oxy-5-[(2S,3R,4R,5R,6S)-3,4,5-trihydroxy-6-methyl-tetrahydropyran-2-yl]oxy-tetrahydropyran-2-yl]oxy-24-oxahexacyclo[15.5.2.01,18.04,17.05,14.08,13]tetracosane-20-carbaldehyde

> <PUBCHEM_IUPAC_CAS_NAME>
(4S,5R,10S,13R,14R,20S,22S)-22-hydroxy-4,5,9,9,13,20-hexamethyl-10-[[(2S,3R,4S,5S)-4-[[(2R,3R,4S,5S,6R)-3,4,5-trihydroxy-6-(hydroxymethyl)-2-oxanyl]oxy]-3-[[(2S,3R,4S,5S,6R)-3,4,5-trihydroxy-6-(hydroxymethyl)-2-oxanyl]oxy]-5-[[(2S,3R,4R,5R,6S)-3,4,5-trihydroxy-6-methyl-2-oxanyl]oxy]-2-oxanyl]oxy]-24-oxahexacyclo[15.5.2.01,18.04,17.05,14.08,13]tetracosane-20-carboxaldehyde

> <PUBCHEM_IUPAC_NAME_MARKUP>
(4<I>S</I>,5<I>R</I>,10<I>S</I>,13<I>R</I>,14<I>R</I>,20<I>S</I>,22<I>S</I>)-22-hydroxy-4,5,9,9,13,20-hexamethyl-10-[(2<I>S</I>,3<I>R</I>,4<I>S</I>,5<I>S</I>)-4-[(2<I>R</I>,3<I>R</I>,4<I>S</I>,5<I>S</I>,6<I>R</I>)-3,4,5-trihydroxy-6-(hydroxymethyl)oxan-2-yl]oxy-3-[(2<I>S</I>,3<I>R</I>,4<I>S</I>,5<I>S</I>,6<I>R</I>)-3,4,5-trihydroxy-6-(hydroxymethyl)oxan-2-yl]oxy-5-[(2<I>S</I>,3<I>R</I>,4<I>R</I>,5<I>R</I>,6<I>S</I>)-3,4,5-trihydroxy-6-methyloxan-2-yl]oxyoxan-2-yl]oxy-24-oxahexacyclo[15.5.2.0<SUP>1,18</SUP>.0<SUP>4,17</SUP>.0<SUP>5,14</SUP>.0<SUP>8,13</SUP>]tetracosane-20-carbaldehyde

> <PUBCHEM_IUPAC_NAME>
(4S,5R,10S,13R,14R,20S,22S)-22-hydroxy-4,5,9,9,13,20-hexamethyl-10-[(2S,3R,4S,5S)-4-[(2R,3R,4S,5S,6R)-3,4,5-trihydroxy-6-(hydroxymethyl)oxan-2-yl]oxy-3-[(2S,3R,4S,5S,6R)-3,4,5-trihydroxy-6-(hydroxymethyl)oxan-2-yl]oxy-5-[(2S,3R,4R,5R,6S)-3,4,5-trihydroxy-6-methyloxan-2-yl]oxyoxan-2-yl]oxy-24-oxahexacyclo[15.5.2.01,18.04,17.05,14.08,13]tetracosane-20-carbaldehyde

> <PUBCHEM_IUPAC_SYSTEMATIC_NAME>
(4S,5R,10S,13R,14R,20S,22S)-10-[(2S,3R,4S,5S)-4-[(2R,3R,4S,5S,6R)-6-(hydroxymethyl)-3,4,5-tris(oxidanyl)oxan-2-yl]oxy-3-[(2S,3R,4S,5S,6R)-6-(hydroxymethyl)-3,4,5-tris(oxidanyl)oxan-2-yl]oxy-5-[(2S,3R,4R,5R,6S)-6-methyl-3,4,5-tris(oxidanyl)oxan-2-yl]oxy-oxan-2-yl]oxy-4,5,9,9,13,20-hexamethyl-22-oxidanyl-24-oxahexacyclo[15.5.2.01,18.04,17.05,14.08,13]tetracosane-20-carbaldehyde

> <PUBCHEM_IUPAC_TRADITIONAL_NAME>
(4S,5R,10S,13R,14R,20S,22S)-22-hydroxy-4,5,9,9,13,20-hexamethyl-10-[(2S,3R,4S,5S)-4-[(2R,3R,4S,5S,6R)-3,4,5-trihydroxy-6-methylol-tetrahydropyran-2-yl]oxy-3-[(2S,3R,4S,5S,6R)-3,4,5-trihydroxy-6-methylol-tetrahydropyran-2-yl]oxy-5-[(2S,3R,4R,5R,6S)-3,4,5-trihydroxy-6-methyl-tetrahydropyran-2-yl]oxy-tetrahydropyran-2-yl]oxy-24-oxahexacyclo[15.5.2.01,18.04,17.05,14.08,13]tetracosane-20-carbaldehyde

> <PUBCHEM_IUPAC_INCHI>
InChI=1S/C53H86O22/c1-23-32(58)35(61)38(64)43(69-23)72-26-20-67-46(42(75-45-40(66)37(63)34(60)25(19-55)71-45)41(26)74-44-39(65)36(62)33(59)24(18-54)70-44)73-31-10-11-49(5)27(47(31,2)3)8-12-50(6)28(49)9-13-53-29-16-48(4,21-56)17-30(57)52(29,22-68-53)15-14-51(50,53)7/h21,23-46,54-55,57-66H,8-20,22H2,1-7H3/t23-,24+,25+,26-,27?,28+,29?,30-,31-,32-,33+,34+,35+,36-,37-,38+,39+,40+,41-,42+,43-,44+,45-,46-,48-,49-,50+,51-,52?,53?/m0/s1

> <PUBCHEM_IUPAC_INCHIKEY>
AWHOLZVUVDYTBG-AZDDWXAASA-N

> <PUBCHEM_XLOGP3_AA>
-0.6

> <PUBCHEM_EXACT_MASS>
1074.561074

> <PUBCHEM_MOLECULAR_FORMULA>
C53H86O22

> <PUBCHEM_MOLECULAR_WEIGHT>
1075.2

> <PUBCHEM_OPENEYE_CAN_SMILES>
CC1C(C(C(C(O1)OC2COC(C(C2OC3C(C(C(C(O3)CO)O)O)O)OC4C(C(C(C(O4)CO)O)O)O)OC5CCC6(C(C5(C)C)CCC7(C6CCC89C7(CCC1(C8CC(CC1O)(C)C=O)CO9)C)C)C)O)O)O

> <PUBCHEM_OPENEYE_ISO_SMILES>
C[C@H]1[C@@H]([C@H]([C@H]([C@@H](O1)O[C@H]2CO[C@H]([C@@H]([C@H]2O[C@@H]3[C@@H]([C@H]([C@@H]([C@H](O3)CO)O)O)O)O[C@H]4[C@@H]([C@H]([C@@H]([C@H](O4)CO)O)O)O)O[C@H]5CC[C@@]6([C@H]7CCC89C1C[C@](C[C@@H](C1(CC[C@]8([C@@]7(CCC6C5(C)C)C)C)CO9)O)(C)C=O)C)O)O)O

> <PUBCHEM_CACTVS_TPSA>
343

> <PUBCHEM_MONOISOTOPIC_WEIGHT>
1074.561074

> <PUBCHEM_TOTAL_CHARGE>
0

> <PUBCHEM_HEAVY_ATOM_COUNT>
75

> <PUBCHEM_ATOM_DEF_STEREO_COUNT>
26

> <PUBCHEM_ATOM_UDEF_STEREO_COUNT>
4

> <PUBCHEM_BOND_DEF_STEREO_COUNT>
0

> <PUBCHEM_BOND_UDEF_STEREO_COUNT>
0

> <PUBCHEM_ISOTOPIC_ATOM_COUNT>
0

> <PUBCHEM_COMPONENT_COUNT>
1

> <PUBCHEM_CACTVS_TAUTO_COUNT>
-1

> <PUBCHEM_COORDINATE_TYPE>
1
5
255

> <PUBCHEM_BONDANNOTATIONS>
60  11  6
62  13  5
63  14  5
65  15  6
66  16  6
67  17  6
69  18  5
70  19  6
38  2  6
73  21  5
23  40  6
24  31  3
25  41  5
26  37  3
27  77  6
28  32  3
29  46  5
47  3  5
53  3  6
34  39  3
44  51  5
54  6  5
58  6  5
64  71  5
68  74  6
55  7  6
59  7  5
72  75  6
57  8  6
61  8  5

$$$$
