44566606
  -OEChem-09092001512D

141149  0     1  0  0  0  0  0999 V2000
    6.2799    2.7310    0.0000 O   0  0  0  0  0  0  0  0  0  0  0  0
    6.1757    5.1278    0.0000 O   0  0  0  0  0  0  0  0  0  0  0  0
   11.6748   -1.1258    0.0000 O   0  0  0  0  0  0  0  0  0  0  0  0
    2.0000    3.4834    0.0000 O   0  0  0  0  0  0  0  0  0  0  0  0
   12.5408    0.3742    0.0000 O   0  0  0  0  0  0  0  0  0  0  0  0
   13.4068   -2.1258    0.0000 O   0  0  0  0  0  0  0  0  0  0  0  0
   15.1389   -1.1258    0.0000 O   0  0  0  0  0  0  0  0  0  0  0  0
   15.1389    0.8742    0.0000 O   0  0  0  0  0  0  0  0  0  0  0  0
   11.6748   -2.1258    0.0000 O   0  0  0  0  0  0  0  0  0  0  0  0
   13.4068   -4.1258    0.0000 O   0  0  0  0  0  0  0  0  0  0  0  0
   16.0049    2.3742    0.0000 O   0  0  0  0  0  0  0  0  0  0  0  0
   11.6748   -5.1258    0.0000 O   0  0  0  0  0  0  0  0  0  0  0  0
    9.9427   -4.1258    0.0000 O   0  0  0  0  0  0  0  0  0  0  0  0
   13.4068    1.8742    0.0000 O   0  0  0  0  0  0  0  0  0  0  0  0
   13.4068    3.8742    0.0000 O   0  0  0  0  0  0  0  0  0  0  0  0
    9.0767   -2.6258    0.0000 O   0  0  0  0  0  0  0  0  0  0  0  0
   15.1389    4.8742    0.0000 O   0  0  0  0  0  0  0  0  0  0  0  0
   17.7370    3.3742    0.0000 O   0  0  0  0  0  0  0  0  0  0  0  0
    7.0321    2.6245    0.0000 C   0  0  2  0  0  0  0  0  0  0  0  0
    6.1642    2.1279    0.0000 C   0  0  2  0  0  0  0  0  0  0  0  0
    7.9402    2.1142    0.0000 C   0  0  1  0  0  0  0  0  0  0  0  0
    5.3001    2.6312    0.0000 C   0  0  1  0  0  0  0  0  0  0  0  0
    7.9442    1.0726    0.0000 C   0  0  1  0  0  0  0  0  0  0  0  0
    5.3039    3.6312    0.0000 C   0  0  2  0  0  0  0  0  0  0  0  0
    8.8775    0.5192    0.0000 C   0  0  2  0  0  0  0  0  0  0  0  0
    7.0360    3.6245    0.0000 C   0  0  0  0  0  0  0  0  0  0  0  0
    6.1441    1.0864    0.0000 C   0  0  0  0  0  0  0  0  0  0  0  0
    6.1719    4.1279    0.0000 C   0  0  1  0  0  0  0  0  0  0  0  0
    7.0401    0.5552    0.0000 C   0  0  0  0  0  0  0  0  0  0  0  0
    9.8192    1.0581    0.0000 C   0  0  1  0  0  0  0  0  0  0  0  0
    8.8692    2.6747    0.0000 C   0  0  0  0  0  0  0  0  0  0  0  0
    5.8826    3.4254    0.0000 C   0  0  0  0  0  0  0  0  0  0  0  0
    4.4041    2.1000    0.0000 C   0  0  0  0  0  0  0  0  0  0  0  0
    4.4121    4.1693    0.0000 C   0  0  0  0  0  0  0  0  0  0  0  0
    9.8150    2.1431    0.0000 C   0  0  0  0  0  0  0  0  0  0  0  0
    7.6778    3.3881    0.0000 C   0  0  0  0  0  0  0  0  0  0  0  0
    8.2785    3.0552    0.0000 C   0  0  0  0  0  0  0  0  0  0  0  0
   10.8044    0.5044    0.0000 C   0  0  0  0  0  0  0  0  0  0  0  0
    8.8557   -0.6107    0.0000 C   0  0  0  0  0  0  0  0  0  0  0  0
    3.5000    2.6173    0.0000 C   0  0  1  0  0  0  0  0  0  0  0  0
    3.5040    3.6590    0.0000 C   0  0  0  0  0  0  0  0  0  0  0  0
    8.0095    0.0226    0.0000 C   0  0  0  0  0  0  0  0  0  0  0  0
   10.8088   -0.6258    0.0000 C   0  0  2  0  0  0  0  0  0  0  0  0
    9.8278   -1.1871    0.0000 C   0  0  0  0  0  0  0  0  0  0  0  0
   11.2977    1.3742    0.0000 C   0  0  0  0  0  0  0  0  0  0  0  0
   11.8044    0.5121    0.0000 C   0  0  0  0  0  0  0  0  0  0  0  0
    3.0000    1.7513    0.0000 C   0  0  0  0  0  0  0  0  0  0  0  0
    2.5000    2.6173    0.0000 C   0  0  0  0  0  0  0  0  0  0  0  0
   12.5408   -0.6258    0.0000 C   0  0  2  0  0  0  0  0  0  0  0  0
   13.4068   -1.1258    0.0000 C   0  0  1  0  0  0  0  0  0  0  0  0
   14.2729   -0.6258    0.0000 C   0  0  2  0  0  0  0  0  0  0  0  0
   13.4068    0.8742    0.0000 C   0  0  0  0  0  0  0  0  0  0  0  0
   14.2729    0.3742    0.0000 C   0  0  2  0  0  0  0  0  0  0  0  0
   12.5408   -2.6258    0.0000 C   0  0  2  0  0  0  0  0  0  0  0  0
   12.5408   -3.6258    0.0000 C   0  0  1  0  0  0  0  0  0  0  0  0
   15.1389    1.8742    0.0000 C   0  0  2  0  0  0  0  0  0  0  0  0
   11.6748   -4.1258    0.0000 C   0  0  2  0  0  0  0  0  0  0  0  0
   10.8088   -2.6258    0.0000 C   0  0  1  0  0  0  0  0  0  0  0  0
   10.8088   -3.6258    0.0000 C   0  0  1  0  0  0  0  0  0  0  0  0
   14.2729    2.3742    0.0000 C   0  0  1  0  0  0  0  0  0  0  0  0
   14.2729    3.3742    0.0000 C   0  0  2  0  0  0  0  0  0  0  0  0
    9.9427   -2.1258    0.0000 C   0  0  0  0  0  0  0  0  0  0  0  0
   16.0049    3.3742    0.0000 C   0  0  1  0  0  0  0  0  0  0  0  0
   15.1389    3.8742    0.0000 C   0  0  1  0  0  0  0  0  0  0  0  0
   16.8709    3.8742    0.0000 C   0  0  0  0  0  0  0  0  0  0  0  0
    5.2968    1.7812    0.0000 H   0  0  0  0  0  0  0  0  0  0  0  0
    7.9376    0.2226    0.0000 H   0  0  0  0  0  0  0  0  0  0  0  0
    7.6461    3.5145    0.0000 H   0  0  0  0  0  0  0  0  0  0  0  0
    7.2503    4.2063    0.0000 H   0  0  0  0  0  0  0  0  0  0  0  0
    5.5354    1.2043    0.0000 H   0  0  0  0  0  0  0  0  0  0  0  0
    5.9238    0.5069    0.0000 H   0  0  0  0  0  0  0  0  0  0  0  0
    6.7100    4.4358    0.0000 H   0  0  0  0  0  0  0  0  0  0  0  0
    6.6373    0.0839    0.0000 H   0  0  0  0  0  0  0  0  0  0  0  0
    7.4356    0.0777    0.0000 H   0  0  0  0  0  0  0  0  0  0  0  0
   10.5520    1.4888    0.0000 H   0  0  0  0  0  0  0  0  0  0  0  0
    9.2609    3.1552    0.0000 H   0  0  0  0  0  0  0  0  0  0  0  0
    8.4628    3.1429    0.0000 H   0  0  0  0  0  0  0  0  0  0  0  0
    6.4859    3.5683    0.0000 H   0  0  0  0  0  0  0  0  0  0  0  0
    5.9164    4.0444    0.0000 H   0  0  0  0  0  0  0  0  0  0  0  0
    4.0086    1.6225    0.0000 H   0  0  0  0  0  0  0  0  0  0  0  0
    4.8069    1.6286    0.0000 H   0  0  0  0  0  0  0  0  0  0  0  0
    4.8185    4.6375    0.0000 H   0  0  0  0  0  0  0  0  0  0  0  0
    4.0203    4.6498    0.0000 H   0  0  0  0  0  0  0  0  0  0  0  0
   10.4263    2.0394    0.0000 H   0  0  0  0  0  0  0  0  0  0  0  0
   10.0218    2.7276    0.0000 H   0  0  0  0  0  0  0  0  0  0  0  0
    8.1513    2.9877    0.0000 H   0  0  0  0  0  0  0  0  0  0  0  0
    8.0782    3.8615    0.0000 H   0  0  0  0  0  0  0  0  0  0  0  0
    7.2044    3.7884    0.0000 H   0  0  0  0  0  0  0  0  0  0  0  0
    8.8620    2.8454    0.0000 H   0  0  0  0  0  0  0  0  0  0  0  0
    8.4884    3.6386    0.0000 H   0  0  0  0  0  0  0  0  0  0  0  0
    7.6951    3.2650    0.0000 H   0  0  0  0  0  0  0  0  0  0  0  0
    8.2470   -0.4929    0.0000 H   0  0  0  0  0  0  0  0  0  0  0  0
    8.6354   -1.1903    0.0000 H   0  0  0  0  0  0  0  0  0  0  0  0
    3.2972    4.2434    0.0000 H   0  0  0  0  0  0  0  0  0  0  0  0
    2.8928    3.5552    0.0000 H   0  0  0  0  0  0  0  0  0  0  0  0
    7.7016    0.5607    0.0000 H   0  0  0  0  0  0  0  0  0  0  0  0
    7.4714   -0.2854    0.0000 H   0  0  0  0  0  0  0  0  0  0  0  0
    8.3174   -0.5156    0.0000 H   0  0  0  0  0  0  0  0  0  0  0  0
   11.3451   -0.3147    0.0000 H   0  0  0  0  0  0  0  0  0  0  0  0
    9.4250   -1.6584    0.0000 H   0  0  0  0  0  0  0  0  0  0  0  0
   10.2233   -1.6646    0.0000 H   0  0  0  0  0  0  0  0  0  0  0  0
    6.7139    5.4358    0.0000 H   0  0  0  0  0  0  0  0  0  0  0  0
   11.8370    1.0684    0.0000 H   0  0  0  0  0  0  0  0  0  0  0  0
   11.6036    1.9135    0.0000 H   0  0  0  0  0  0  0  0  0  0  0  0
   10.7584    1.6801    0.0000 H   0  0  0  0  0  0  0  0  0  0  0  0
   11.8092   -0.1079    0.0000 H   0  0  0  0  0  0  0  0  0  0  0  0
   12.4244    0.5169    0.0000 H   0  0  0  0  0  0  0  0  0  0  0  0
   11.7996    1.1321    0.0000 H   0  0  0  0  0  0  0  0  0  0  0  0
    2.4631    2.0613    0.0000 H   0  0  0  0  0  0  0  0  0  0  0  0
    2.6900    1.2144    0.0000 H   0  0  0  0  0  0  0  0  0  0  0  0
    3.5369    1.4413    0.0000 H   0  0  0  0  0  0  0  0  0  0  0  0
    2.1900    2.0804    0.0000 H   0  0  0  0  0  0  0  0  0  0  0  0
   12.5408   -1.2458    0.0000 H   0  0  0  0  0  0  0  0  0  0  0  0
   13.9438   -1.4358    0.0000 H   0  0  0  0  0  0  0  0  0  0  0  0
   14.8098   -0.3158    0.0000 H   0  0  0  0  0  0  0  0  0  0  0  0
   13.8054    1.3492    0.0000 H   0  0  0  0  0  0  0  0  0  0  0  0
   13.0083    1.3492    0.0000 H   0  0  0  0  0  0  0  0  0  0  0  0
   14.2729    0.9942    0.0000 H   0  0  0  0  0  0  0  0  0  0  0  0
   13.0777   -2.9358    0.0000 H   0  0  0  0  0  0  0  0  0  0  0  0
   15.6758   -0.8158    0.0000 H   0  0  0  0  0  0  0  0  0  0  0  0
   12.5408   -4.2458    0.0000 H   0  0  0  0  0  0  0  0  0  0  0  0
   14.6020    1.5642    0.0000 H   0  0  0  0  0  0  0  0  0  0  0  0
   12.2117   -4.4358    0.0000 H   0  0  0  0  0  0  0  0  0  0  0  0
   10.8088   -2.0058    0.0000 H   0  0  0  0  0  0  0  0  0  0  0  0
   10.8088   -4.2458    0.0000 H   0  0  0  0  0  0  0  0  0  0  0  0
   13.7359    2.6842    0.0000 H   0  0  0  0  0  0  0  0  0  0  0  0
   13.9438   -3.8158    0.0000 H   0  0  0  0  0  0  0  0  0  0  0  0
   14.2729    3.9942    0.0000 H   0  0  0  0  0  0  0  0  0  0  0  0
   10.3413   -1.6508    0.0000 H   0  0  0  0  0  0  0  0  0  0  0  0
    9.5442   -1.6508    0.0000 H   0  0  0  0  0  0  0  0  0  0  0  0
   16.5418    3.0642    0.0000 H   0  0  0  0  0  0  0  0  0  0  0  0
   15.6758    4.1842    0.0000 H   0  0  0  0  0  0  0  0  0  0  0  0
   12.2117   -5.4358    0.0000 H   0  0  0  0  0  0  0  0  0  0  0  0
    9.9427   -4.7458    0.0000 H   0  0  0  0  0  0  0  0  0  0  0  0
   12.8699    2.1842    0.0000 H   0  0  0  0  0  0  0  0  0  0  0  0
   17.2695    4.3492    0.0000 H   0  0  0  0  0  0  0  0  0  0  0  0
   16.4724    4.3492    0.0000 H   0  0  0  0  0  0  0  0  0  0  0  0
   13.4068    4.4942    0.0000 H   0  0  0  0  0  0  0  0  0  0  0  0
    8.5398   -2.3158    0.0000 H   0  0  0  0  0  0  0  0  0  0  0  0
   15.6758    5.1842    0.0000 H   0  0  0  0  0  0  0  0  0  0  0  0
   18.2739    3.6842    0.0000 H   0  0  0  0  0  0  0  0  0  0  0  0
  1 20  1  0  0  0  0
  1 32  1  0  0  0  0
 28  2  1  6  0  0  0
  2102  1  0  0  0  0
 43  3  1  1  0  0  0
 49  3  1  6  0  0  0
  4 48  2  0  0  0  0
  5 49  1  0  0  0  0
  5 52  1  0  0  0  0
 50  6  1  1  0  0  0
 54  6  1  1  0  0  0
 51  7  1  6  0  0  0
  7120  1  0  0  0  0
 53  8  1  6  0  0  0
 56  8  1  1  0  0  0
  9 54  1  0  0  0  0
  9 58  1  0  0  0  0
 55 10  1  6  0  0  0
 10127  1  0  0  0  0
 11 56  1  0  0  0  0
 11 63  1  0  0  0  0
 57 12  1  1  0  0  0
 12133  1  0  0  0  0
 59 13  1  6  0  0  0
 13134  1  0  0  0  0
 60 14  1  6  0  0  0
 14135  1  0  0  0  0
 61 15  1  1  0  0  0
 15138  1  0  0  0  0
 16 62  1  0  0  0  0
 16139  1  0  0  0  0
 64 17  1  6  0  0  0
 17140  1  0  0  0  0
 18 65  1  0  0  0  0
 18141  1  0  0  0  0
 19 20  1  0  0  0  0
 19 21  1  0  0  0  0
 19 26  1  0  0  0  0
 19 36  1  6  0  0  0
 20 22  1  0  0  0  0
 20 27  1  1  0  0  0
 21 23  1  0  0  0  0
 21 31  1  0  0  0  0
 21 37  1  1  0  0  0
 22 24  1  0  0  0  0
 22 33  1  0  0  0  0
 22 66  1  1  0  0  0
 23 25  1  0  0  0  0
 23 29  1  0  0  0  0
 23 67  1  6  0  0  0
 24 28  1  0  0  0  0
 24 32  1  0  0  0  0
 24 34  1  1  0  0  0
 25 30  1  0  0  0  0
 25 39  1  0  0  0  0
 25 42  1  1  0  0  0
 26 28  1  0  0  0  0
 26 68  1  0  0  0  0
 26 69  1  0  0  0  0
 27 29  1  0  0  0  0
 27 70  1  0  0  0  0
 27 71  1  0  0  0  0
 28 72  1  0  0  0  0
 29 73  1  0  0  0  0
 29 74  1  0  0  0  0
 30 35  1  0  0  0  0
 30 38  1  0  0  0  0
 30 75  1  6  0  0  0
 31 35  1  0  0  0  0
 31 76  1  0  0  0  0
 31 77  1  0  0  0  0
 32 78  1  0  0  0  0
 32 79  1  0  0  0  0
 33 40  1  0  0  0  0
 33 80  1  0  0  0  0
 33 81  1  0  0  0  0
 34 41  1  0  0  0  0
 34 82  1  0  0  0  0
 34 83  1  0  0  0  0
 35 84  1  0  0  0  0
 35 85  1  0  0  0  0
 36 86  1  0  0  0  0
 36 87  1  0  0  0  0
 36 88  1  0  0  0  0
 37 89  1  0  0  0  0
 37 90  1  0  0  0  0
 37 91  1  0  0  0  0
 38 43  1  0  0  0  0
 38 45  1  0  0  0  0
 38 46  1  0  0  0  0
 39 44  1  0  0  0  0
 39 92  1  0  0  0  0
 39 93  1  0  0  0  0
 40 41  1  0  0  0  0
 40 47  1  6  0  0  0
 40 48  1  0  0  0  0
 41 94  1  0  0  0  0
 41 95  1  0  0  0  0
 42 96  1  0  0  0  0
 42 97  1  0  0  0  0
 42 98  1  0  0  0  0
 43 44  1  0  0  0  0
 43 99  1  0  0  0  0
 44100  1  0  0  0  0
 44101  1  0  0  0  0
 45103  1  0  0  0  0
 45104  1  0  0  0  0
 45105  1  0  0  0  0
 46106  1  0  0  0  0
 46107  1  0  0  0  0
 46108  1  0  0  0  0
 47109  1  0  0  0  0
 47110  1  0  0  0  0
 47111  1  0  0  0  0
 48112  1  0  0  0  0
 49 50  1  0  0  0  0
 49113  1  0  0  0  0
 50 51  1  0  0  0  0
 50114  1  0  0  0  0
 51 53  1  0  0  0  0
 51115  1  0  0  0  0
 52 53  1  0  0  0  0
 52116  1  0  0  0  0
 52117  1  0  0  0  0
 53118  1  0  0  0  0
 54 55  1  0  0  0  0
 54119  1  0  0  0  0
 55 57  1  0  0  0  0
 55121  1  0  0  0  0
 56 60  1  0  0  0  0
 56122  1  0  0  0  0
 57 59  1  0  0  0  0
 57123  1  0  0  0  0
 58 59  1  0  0  0  0
 58 62  1  1  0  0  0
 58124  1  0  0  0  0
 59125  1  0  0  0  0
 60 61  1  0  0  0  0
 60126  1  0  0  0  0
 61 64  1  0  0  0  0
 61128  1  0  0  0  0
 62129  1  0  0  0  0
 62130  1  0  0  0  0
 63 64  1  0  0  0  0
 63 65  1  1  0  0  0
 63131  1  0  0  0  0
 64132  1  0  0  0  0
 65136  1  0  0  0  0
 65137  1  0  0  0  0
M  END
> <PUBCHEM_COMPOUND_CID>
44566606

> <PUBCHEM_COMPOUND_CANONICALIZED>
1

> <PUBCHEM_CACTVS_COMPLEXITY>
1760

> <PUBCHEM_CACTVS_HBOND_ACCEPTOR>
18

> <PUBCHEM_CACTVS_HBOND_DONOR>
10

> <PUBCHEM_CACTVS_ROTATABLE_BOND>
9

> <PUBCHEM_CACTVS_SUBSKEYS>
AAADcfB8PgAAAAAAAAAAAAAAAAAAASAAAAA0aNGDBIAAAEjAAAAAGgAACAAAD1SwgAMCCAAABgAIAAgQgAAAAAAAAAAAAAEAAAAREBIAAAAiQAAFAAAHAAHI7PzPgAAAAAAAAADCAAYAADAAAAAAAAAAAA==

> <PUBCHEM_IUPAC_OPENEYE_NAME>
(1S,2R,4S,5R,8R,10S,13R,14R,17S,18R,20S)-2-hydroxy-10-[(2S,3R,4S,5S)-4-hydroxy-3,5-bis[[(2S,3R,4S,5S,6R)-3,4,5-trihydroxy-6-(hydroxymethyl)tetrahydropyran-2-yl]oxy]tetrahydropyran-2-yl]oxy-4,5,9,9,13,20-hexamethyl-24-oxahexacyclo[15.5.2.01,18.04,17.05,14.08,13]tetracosane-20-carbaldehyde

> <PUBCHEM_IUPAC_CAS_NAME>
(1S,2R,4S,5R,8R,10S,13R,14R,17S,18R,20S)-2-hydroxy-10-[[(2S,3R,4S,5S)-4-hydroxy-3,5-bis[[(2S,3R,4S,5S,6R)-3,4,5-trihydroxy-6-(hydroxymethyl)-2-oxanyl]oxy]-2-oxanyl]oxy]-4,5,9,9,13,20-hexamethyl-24-oxahexacyclo[15.5.2.01,18.04,17.05,14.08,13]tetracosane-20-carboxaldehyde

> <PUBCHEM_IUPAC_NAME_MARKUP>
(1<I>S</I>,2<I>R</I>,4<I>S</I>,5<I>R</I>,8<I>R</I>,10<I>S</I>,13<I>R</I>,14<I>R</I>,17<I>S</I>,18<I>R</I>,20<I>S</I>)-2-hydroxy-10-[(2<I>S</I>,3<I>R</I>,4<I>S</I>,5<I>S</I>)-4-hydroxy-3,5-bis[[(2<I>S</I>,3<I>R</I>,4<I>S</I>,5<I>S</I>,6<I>R</I>)-3,4,5-trihydroxy-6-(hydroxymethyl)oxan-2-yl]oxy]oxan-2-yl]oxy-4,5,9,9,13,20-hexamethyl-24-oxahexacyclo[15.5.2.0<SUP>1,18</SUP>.0<SUP>4,17</SUP>.0<SUP>5,14</SUP>.0<SUP>8,13</SUP>]tetracosane-20-carbaldehyde

> <PUBCHEM_IUPAC_NAME>
(1S,2R,4S,5R,8R,10S,13R,14R,17S,18R,20S)-2-hydroxy-10-[(2S,3R,4S,5S)-4-hydroxy-3,5-bis[[(2S,3R,4S,5S,6R)-3,4,5-trihydroxy-6-(hydroxymethyl)oxan-2-yl]oxy]oxan-2-yl]oxy-4,5,9,9,13,20-hexamethyl-24-oxahexacyclo[15.5.2.01,18.04,17.05,14.08,13]tetracosane-20-carbaldehyde

> <PUBCHEM_IUPAC_SYSTEMATIC_NAME>
(1S,2R,4S,5R,8R,10S,13R,14R,17S,18R,20S)-10-[(2S,3R,4S,5S)-3,5-bis[[(2S,3R,4S,5S,6R)-6-(hydroxymethyl)-3,4,5-tris(oxidanyl)oxan-2-yl]oxy]-4-oxidanyl-oxan-2-yl]oxy-4,5,9,9,13,20-hexamethyl-2-oxidanyl-24-oxahexacyclo[15.5.2.01,18.04,17.05,14.08,13]tetracosane-20-carbaldehyde

> <PUBCHEM_IUPAC_TRADITIONAL_NAME>
(1S,2R,4S,5R,8R,10S,13R,14R,17S,18R,20S)-2-hydroxy-10-[(2S,3R,4S,5S)-4-hydroxy-3,5-bis[[(2S,3R,4S,5S,6R)-3,4,5-trihydroxy-6-methylol-tetrahydropyran-2-yl]oxy]tetrahydropyran-2-yl]oxy-4,5,9,9,13,20-hexamethyl-24-oxahexacyclo[15.5.2.01,18.04,17.05,14.08,13]tetracosane-20-carbaldehyde

> <PUBCHEM_IUPAC_INCHI>
InChI=1S/C47H76O18/c1-41(2)25-7-11-44(5)26(8-12-47-27-15-42(3,20-50)13-14-46(27,21-60-47)28(51)16-45(44,47)6)43(25,4)10-9-29(41)64-40-37(65-39-36(58)34(56)31(53)23(18-49)62-39)32(54)24(19-59-40)63-38-35(57)33(55)30(52)22(17-48)61-38/h20,22-40,48-49,51-58H,7-19,21H2,1-6H3/t22-,23-,24+,25+,26-,27-,28-,29+,30-,31-,32+,33+,34+,35-,36-,37-,38+,39+,40+,42+,43+,44-,45+,46-,47+/m1/s1

> <PUBCHEM_IUPAC_INCHIKEY>
COSOLZZFQIVEIH-CDLHYRBUSA-N

> <PUBCHEM_XLOGP3_AA>
0.5

> <PUBCHEM_EXACT_MASS>
928.503166

> <PUBCHEM_MOLECULAR_FORMULA>
C47H76O18

> <PUBCHEM_MOLECULAR_WEIGHT>
929.1

> <PUBCHEM_OPENEYE_CAN_SMILES>
CC1(C2CCC3(C(C2(CCC1OC4C(C(C(CO4)OC5C(C(C(C(O5)CO)O)O)O)O)OC6C(C(C(C(O6)CO)O)O)O)C)CCC78C3(CC(C9(C7CC(CC9)(C)C=O)CO8)O)C)C)C

> <PUBCHEM_OPENEYE_ISO_SMILES>
C[C@@]1(CC[C@@]23CO[C@]4([C@@H]2C1)CC[C@@H]5[C@]6(CC[C@@H](C([C@@H]6CC[C@]5([C@@]4(C[C@H]3O)C)C)(C)C)O[C@H]7[C@@H]([C@H]([C@H](CO7)O[C@H]8[C@@H]([C@H]([C@@H]([C@H](O8)CO)O)O)O)O)O[C@H]9[C@@H]([C@H]([C@@H]([C@H](O9)CO)O)O)O)C)C=O

> <PUBCHEM_CACTVS_TPSA>
284

> <PUBCHEM_MONOISOTOPIC_WEIGHT>
928.503166

> <PUBCHEM_TOTAL_CHARGE>
0

> <PUBCHEM_HEAVY_ATOM_COUNT>
65

> <PUBCHEM_ATOM_DEF_STEREO_COUNT>
25

> <PUBCHEM_ATOM_UDEF_STEREO_COUNT>
0

> <PUBCHEM_BOND_DEF_STEREO_COUNT>
0

> <PUBCHEM_BOND_UDEF_STEREO_COUNT>
0

> <PUBCHEM_ISOTOPIC_ATOM_COUNT>
0

> <PUBCHEM_COMPONENT_COUNT>
1

> <PUBCHEM_CACTVS_TAUTO_COUNT>
-1

> <PUBCHEM_COORDINATE_TYPE>
1
5
255

> <PUBCHEM_BONDANNOTATIONS>
55  10  6
57  12  5
59  13  6
60  14  6
61  15  5
64  17  6
19  36  6
28  2  6
20  27  5
21  37  5
22  66  5
23  67  6
24  34  5
25  42  5
43  3  5
49  3  6
30  75  6
40  47  6
58  62  5
50  6  5
54  6  5
63  65  5
51  7  6
53  8  6
56  8  5

$$$$
