102103086
  -OEChem-11202009533D

 57 60  0     1  0  0  0  0  0999 V2000
    2.4816    0.2448    0.4036 O   0  0  0  0  0  0  0  0  0  0  0  0
    1.4031   -0.8561   -1.3482 O   0  0  0  0  0  0  0  0  0  0  0  0
    5.8235    0.8983   -1.8922 O   0  0  0  0  0  0  0  0  0  0  0  0
    5.9817    1.1545    0.9827 O   0  0  0  0  0  0  0  0  0  0  0  0
    3.8987   -1.2045   -2.6362 O   0  0  0  0  0  0  0  0  0  0  0  0
    2.3451    0.7349    3.1050 O   0  0  0  0  0  0  0  0  0  0  0  0
   -3.1075   -0.4453    0.4705 O   0  0  0  0  0  0  0  0  0  0  0  0
   -0.7625    0.6697   -1.1252 O   0  0  0  0  0  0  0  0  0  0  0  0
   -0.5034   -4.2578    1.3745 O   0  0  0  0  0  0  0  0  0  0  0  0
   -7.0786   -0.2235   -0.4302 O   0  0  0  0  0  0  0  0  0  0  0  0
   -5.2716   -1.5113   -0.9375 O   0  0  0  0  0  0  0  0  0  0  0  0
    4.9951    0.1707   -0.9840 C   0  0  1  0  0  0  0  0  0  0  0  0
    4.7647    1.0442    0.2493 C   0  0  1  0  0  0  0  0  0  0  0  0
    3.6739   -0.1792   -1.6690 C   0  0  2  0  0  0  0  0  0  0  0  0
    3.6847    0.4392    1.1493 C   0  0  1  0  0  0  0  0  0  0  0  0
    2.6432   -0.6887   -0.6616 C   0  0  1  0  0  0  0  0  0  0  0  0
    3.3541    1.3514    2.3263 C   0  0  0  0  0  0  0  0  0  0  0  0
    0.3475   -1.3146   -0.6140 C   0  0  0  0  0  0  0  0  0  0  0  0
   -0.8140   -0.5407   -0.4703 C   0  0  0  0  0  0  0  0  0  0  0  0
   -3.4790    0.6150   -0.4171 C   0  0  2  0  0  0  0  0  0  0  0  0
   -1.8935   -1.0440    0.2657 C   0  0  0  0  0  0  0  0  0  0  0  0
    0.4544   -2.5599    0.0028 C   0  0  0  0  0  0  0  0  0  0  0  0
   -2.6297    1.8231   -0.1148 C   0  0  0  0  0  0  0  0  0  0  0  0
   -1.2753    1.7623   -0.4668 C   0  0  0  0  0  0  0  0  0  0  0  0
   -0.6024   -3.0459    0.7641 C   0  0  0  0  0  0  0  0  0  0  0  0
   -4.9864    0.8111   -0.2540 C   0  0  0  0  0  0  0  0  0  0  0  0
   -1.7681   -2.2913    0.8946 C   0  0  0  0  0  0  0  0  0  0  0  0
   -3.0979    2.9817    0.5165 C   0  0  0  0  0  0  0  0  0  0  0  0
   -0.4153    2.8392   -0.2420 C   0  0  0  0  0  0  0  0  0  0  0  0
   -2.2370    4.0555    0.7626 C   0  0  0  0  0  0  0  0  0  0  0  0
   -0.8989    3.9860    0.3807 C   0  0  0  0  0  0  0  0  0  0  0  0
   -5.7474   -0.4430   -0.5836 C   0  0  0  0  0  0  0  0  0  0  0  0
    0.7173   -4.9758    1.1987 C   0  0  0  0  0  0  0  0  0  0  0  0
    5.5528   -0.7360   -0.7220 H   0  0  0  0  0  0  0  0  0  0  0  0
    4.4785    2.0558   -0.0638 H   0  0  0  0  0  0  0  0  0  0  0  0
    3.2816    0.6883   -2.2129 H   0  0  0  0  0  0  0  0  0  0  0  0
    4.0052   -0.5312    1.5525 H   0  0  0  0  0  0  0  0  0  0  0  0
    2.9747   -1.6553   -0.2608 H   0  0  0  0  0  0  0  0  0  0  0  0
    2.9635    2.3128    1.9763 H   0  0  0  0  0  0  0  0  0  0  0  0
    4.2297    1.5248    2.9590 H   0  0  0  0  0  0  0  0  0  0  0  0
    5.3469    1.7032   -2.1579 H   0  0  0  0  0  0  0  0  0  0  0  0
    6.2368    0.2635    1.2769 H   0  0  0  0  0  0  0  0  0  0  0  0
    4.2472   -1.9852   -2.1729 H   0  0  0  0  0  0  0  0  0  0  0  0
   -3.3115    0.3012   -1.4586 H   0  0  0  0  0  0  0  0  0  0  0  0
    2.1450    1.3353    3.8432 H   0  0  0  0  0  0  0  0  0  0  0  0
    1.3659   -3.1233   -0.1592 H   0  0  0  0  0  0  0  0  0  0  0  0
   -5.2276    1.0537    0.7884 H   0  0  0  0  0  0  0  0  0  0  0  0
   -5.3401    1.6154   -0.9088 H   0  0  0  0  0  0  0  0  0  0  0  0
   -2.5947   -2.6856    1.4828 H   0  0  0  0  0  0  0  0  0  0  0  0
   -4.1340    3.0769    0.8268 H   0  0  0  0  0  0  0  0  0  0  0  0
    0.6270    2.7864   -0.5440 H   0  0  0  0  0  0  0  0  0  0  0  0
   -2.6148    4.9496    1.2506 H   0  0  0  0  0  0  0  0  0  0  0  0
   -0.2354    4.8251    0.5675 H   0  0  0  0  0  0  0  0  0  0  0  0
    1.5698   -4.4315    1.6193 H   0  0  0  0  0  0  0  0  0  0  0  0
    0.8750   -5.2502    0.1501 H   0  0  0  0  0  0  0  0  0  0  0  0
    0.6261   -5.9101    1.7625 H   0  0  0  0  0  0  0  0  0  0  0  0
   -7.6073   -1.0234   -0.6373 H   0  0  0  0  0  0  0  0  0  0  0  0
  1 15  1  0  0  0  0
  1 16  1  0  0  0  0
  2 16  1  0  0  0  0
  2 18  1  0  0  0  0
  3 12  1  0  0  0  0
  3 41  1  0  0  0  0
  4 13  1  0  0  0  0
  4 42  1  0  0  0  0
  5 14  1  0  0  0  0
  5 43  1  0  0  0  0
  6 17  1  0  0  0  0
  6 45  1  0  0  0  0
  7 20  1  0  0  0  0
  7 21  1  0  0  0  0
  8 19  1  0  0  0  0
  8 24  1  0  0  0  0
  9 25  1  0  0  0  0
  9 33  1  0  0  0  0
 10 32  1  0  0  0  0
 10 57  1  0  0  0  0
 11 32  2  0  0  0  0
 12 13  1  0  0  0  0
 12 14  1  0  0  0  0
 12 34  1  0  0  0  0
 13 15  1  0  0  0  0
 13 35  1  0  0  0  0
 14 16  1  0  0  0  0
 14 36  1  0  0  0  0
 15 17  1  0  0  0  0
 15 37  1  0  0  0  0
 16 38  1  0  0  0  0
 17 39  1  0  0  0  0
 17 40  1  0  0  0  0
 18 19  1  0  0  0  0
 18 22  2  0  0  0  0
 19 21  2  0  0  0  0
 20 23  1  0  0  0  0
 20 26  1  0  0  0  0
 20 44  1  0  0  0  0
 21 27  1  0  0  0  0
 22 25  1  0  0  0  0
 22 46  1  0  0  0  0
 23 24  1  0  0  0  0
 23 28  2  0  0  0  0
 24 29  2  0  0  0  0
 25 27  2  0  0  0  0
 26 32  1  0  0  0  0
 26 47  1  0  0  0  0
 26 48  1  0  0  0  0
 27 49  1  0  0  0  0
 28 30  1  0  0  0  0
 28 50  1  0  0  0  0
 29 31  1  0  0  0  0
 29 51  1  0  0  0  0
 30 31  2  0  0  0  0
 30 52  1  0  0  0  0
 31 53  1  0  0  0  0
 33 54  1  0  0  0  0
 33 55  1  0  0  0  0
 33 56  1  0  0  0  0
M  END
> <PUBCHEM_COMPOUND_CID>
102103086

> <PUBCHEM_CONFORMER_RMSD>
1

> <PUBCHEM_CONFORMER_DIVERSEORDER>
1
123
25
103
45
74
34
77
37
39
94
92
43
42
31
53
107
110
129
95
38
21
36
33
106
65
56
120
26
118
23
78
59
70
30
121
41
27
76
83
29
119
80
79
99
100
127
85
90
126
87
115
102
60
68
35
96
89
86
11
44
17
88
57
7
105
67
64
22
63
54
114
108
48
113
3
66
130
8
97
124
28
47
20
50
9
71
58
46
117
81
5
84
73
12
14
101
62
112
91
32
2
69
122
82
15
51
13
24
116
104
18
4
111
19
52
128
125
16
49
6
72
98
55
40
61
109
93
75
10

> <PUBCHEM_MMFF94_PARTIAL_CHARGES>
44
1 -0.56
10 -0.65
11 -0.57
12 0.28
13 0.28
14 0.28
15 0.28
16 0.56
17 0.28
18 0.08
19 0.08
2 -0.36
20 0.42
21 0.08
22 -0.15
23 -0.14
24 0.08
25 0.08
26 0.06
27 -0.15
28 -0.15
29 -0.15
3 -0.68
30 -0.15
31 -0.15
32 0.66
33 0.28
4 -0.68
41 0.4
42 0.4
43 0.4
45 0.4
46 0.15
49 0.15
5 -0.68
50 0.15
51 0.15
52 0.15
53 0.15
57 0.5
6 -0.68
7 -0.36
8 -0.17
9 -0.36

> <PUBCHEM_EFFECTIVE_ROTOR_COUNT>
7.8

> <PUBCHEM_PHARMACOPHORE_FEATURES>
20
1 1 acceptor
1 10 acceptor
1 11 acceptor
1 2 acceptor
1 3 acceptor
1 3 donor
1 4 acceptor
1 4 donor
1 5 acceptor
1 5 donor
1 6 acceptor
1 6 donor
1 7 acceptor
1 8 acceptor
1 9 acceptor
3 10 11 32 anion
6 1 12 13 14 15 16 rings
6 18 19 21 22 25 27 rings
6 23 24 28 29 30 31 rings
7 7 8 19 20 21 23 24 rings

> <PUBCHEM_HEAVY_ATOM_COUNT>
33

> <PUBCHEM_ATOM_DEF_STEREO_COUNT>
5

> <PUBCHEM_ATOM_UDEF_STEREO_COUNT>
1

> <PUBCHEM_BOND_DEF_STEREO_COUNT>
0

> <PUBCHEM_BOND_UDEF_STEREO_COUNT>
0

> <PUBCHEM_ISOTOPIC_ATOM_COUNT>
0

> <PUBCHEM_COMPONENT_COUNT>
1

> <PUBCHEM_CACTVS_TAUTO_COUNT>
2

> <PUBCHEM_CONFORMER_ID>
0615F82E00000001

> <PUBCHEM_MMFF94_ENERGY>
126.0231

> <PUBCHEM_FEATURE_SELFOVERLAP>
101.67

> <PUBCHEM_SHAPE_FINGERPRINT>
10006869 2 18197202673578401663
10366900 7 18201445783043507324
10670039 82 18337399245025744340
10930396 42 18120345865619763752
1100329 8 18265047123531158881
11578080 2 17608076586663322157
11646440 116 18339654420846702145
12236239 1 17022901293675260502
12596602 18 17095529542864163408
12758862 11 18270132313929411524
12788726 201 18409733958273436481
13383668 362 17831292810083290739
13402501 40 18202278134784121312
13617811 41 18334293171774399565
13782708 43 17988655051521149510
13911987 19 18260268568719082239
14725015 67 18341314648328267136
14787075 74 18410573998579867389
15324884 4 17841727501917516190
18608769 82 18059852887411029748
20511986 3 16878495864604726276
20554085 129 18336817650234168979
20600515 1 18189052169352832892
22122407 14 15575013765845651285
221357 26 17775570806059404604
23559900 14 18340209720646315413
283562 15 18337959995802896341
3178227 256 18262531389946551387
350125 39 18118685418188018126
392239 28 18412544280393439321
469060 322 18114189588505003413
5252454 2 17907310848783261985
5486654 2 18408325501490459631
57527295 17 17769682826951441214
6004065 56 18198898300870600631
7097593 13 17254835270246929971
9981440 41 18260835847561921923

> <PUBCHEM_SHAPE_MULTIPOLES>
614.56
11.61
4.87
1.79
0.83
2.33
0.39
-3.2
-3.27
2.34
2.54
-2.87
0.11
0.3

> <PUBCHEM_SHAPE_SELFOVERLAP>
1331.51

> <PUBCHEM_SHAPE_VOLUME>
330.3

> <PUBCHEM_COORDINATE_TYPE>
2
5
10

$$$$
