53355121
  -OEChem-09062006593D

 76 78  0     1  0  0  0  0  0999 V2000
   -3.0628    0.5284   -0.3616 O   0  0  0  0  0  0  0  0  0  0  0  0
    0.4339    1.5750   -0.5270 O   0  0  0  0  0  0  0  0  0  0  0  0
   -3.6359   -0.9588    1.3966 O   0  0  0  0  0  0  0  0  0  0  0  0
   -0.4686   -0.5753   -0.6052 O   0  0  0  0  0  0  0  0  0  0  0  0
   -3.0305    3.1116    1.0551 O   0  0  0  0  0  0  0  0  0  0  0  0
   -1.0761    4.8868   -0.1215 O   0  0  0  0  0  0  0  0  0  0  0  0
   -6.2409    0.2555    1.3775 O   0  0  0  0  0  0  0  0  0  0  0  0
   -7.0542   -1.0332   -0.9512 O   0  0  0  0  0  0  0  0  0  0  0  0
   -5.3663   -3.3318   -0.8316 O   0  0  0  0  0  0  0  0  0  0  0  0
    2.5409    3.1057   -1.4059 O   0  0  0  0  0  0  0  0  0  0  0  0
    7.4763    0.6305   -0.3567 O   0  0  0  0  0  0  0  0  0  0  0  0
   -1.8930    1.2220    0.0718 C   0  0  2  0  0  0  0  0  0  0  0  0
   -2.1420    2.7288    0.0042 C   0  0  2  0  0  0  0  0  0  0  0  0
   -0.8410    3.5130    0.1757 C   0  0  1  0  0  0  0  0  0  0  0  0
   -0.7300    0.8096   -0.8306 C   0  0  1  0  0  0  0  0  0  0  0  0
    4.5022   -0.4678    1.4899 C   0  0  0  0  0  0  0  0  0  0  0  0
    0.2460    2.9725   -0.7564 C   0  0  1  0  0  0  0  0  0  0  0  0
   -3.9431    0.2685    0.7264 C   0  0  2  0  0  0  0  0  0  0  0  0
   -5.3883    0.2645    0.2313 C   0  0  1  0  0  0  0  0  0  0  0  0
    4.0089   -1.5257    0.4493 C   0  0  2  0  0  0  0  0  0  0  0  0
   -5.6657   -0.9655   -0.6346 C   0  0  1  0  0  0  0  0  0  0  0  0
   -5.2506   -2.2481    0.0873 C   0  0  2  0  0  0  0  0  0  0  0  0
   -3.8044   -2.1272    0.5875 C   0  0  2  0  0  0  0  0  0  0  0  0
    5.3743    0.5957    0.7937 C   0  0  0  0  0  0  0  0  0  0  0  0
    5.1531   -2.0650   -0.3929 C   0  0  0  0  0  0  0  0  0  0  0  0
    3.3182    0.2333    2.1912 C   0  0  0  0  0  0  0  0  0  0  0  0
    5.3268   -1.1674    2.6009 C   0  0  0  0  0  0  0  0  0  0  0  0
    1.5862    3.6616   -0.5204 C   0  0  0  0  0  0  0  0  0  0  0  0
    0.6047   -1.0408   -1.4192 C   0  0  1  0  0  0  0  0  0  0  0  0
    2.9196   -1.0206   -0.4593 C   0  0  0  0  0  0  0  0  0  0  0  0
    6.4624   -0.0055   -0.0713 C   0  0  0  0  0  0  0  0  0  0  0  0
   -3.3927   -3.3236    1.4411 C   0  0  0  0  0  0  0  0  0  0  0  0
    1.6876   -1.5475   -0.5130 C   0  0  0  0  0  0  0  0  0  0  0  0
    6.2770   -1.3686   -0.6253 C   0  0  0  0  0  0  0  0  0  0  0  0
    4.9749   -3.4479   -0.9579 C   0  0  0  0  0  0  0  0  0  0  0  0
    0.0932   -2.1428   -2.3378 C   0  0  0  0  0  0  0  0  0  0  0  0
   -1.6451    0.9248    1.1015 H   0  0  0  0  0  0  0  0  0  0  0  0
   -2.6432    2.9969   -0.9334 H   0  0  0  0  0  0  0  0  0  0  0  0
   -0.5104    3.4562    1.2201 H   0  0  0  0  0  0  0  0  0  0  0  0
   -1.0039    0.9380   -1.8871 H   0  0  0  0  0  0  0  0  0  0  0  0
   -3.8647    1.0316    1.5036 H   0  0  0  0  0  0  0  0  0  0  0  0
   -0.0295    3.1182   -1.8099 H   0  0  0  0  0  0  0  0  0  0  0  0
   -5.6156    1.1716   -0.3406 H   0  0  0  0  0  0  0  0  0  0  0  0
    3.6098   -2.3687    1.0333 H   0  0  0  0  0  0  0  0  0  0  0  0
   -5.1263   -0.8862   -1.5867 H   0  0  0  0  0  0  0  0  0  0  0  0
   -5.9380   -2.4473    0.9178 H   0  0  0  0  0  0  0  0  0  0  0  0
   -3.1104   -2.0771   -0.2616 H   0  0  0  0  0  0  0  0  0  0  0  0
    4.7679    1.2422    0.1480 H   0  0  0  0  0  0  0  0  0  0  0  0
    5.8541    1.2357    1.5444 H   0  0  0  0  0  0  0  0  0  0  0  0
    3.6722    0.9069    2.9803 H   0  0  0  0  0  0  0  0  0  0  0  0
    2.7301    0.8411    1.4952 H   0  0  0  0  0  0  0  0  0  0  0  0
    2.6456   -0.4972    2.6546 H   0  0  0  0  0  0  0  0  0  0  0  0
    6.2078   -1.6861    2.2108 H   0  0  0  0  0  0  0  0  0  0  0  0
    5.6804   -0.4421    3.3430 H   0  0  0  0  0  0  0  0  0  0  0  0
    4.7175   -1.9088    3.1307 H   0  0  0  0  0  0  0  0  0  0  0  0
    1.5228    4.7385   -0.7027 H   0  0  0  0  0  0  0  0  0  0  0  0
    1.9392    3.4870    0.5016 H   0  0  0  0  0  0  0  0  0  0  0  0
    0.9988   -0.2455   -2.0665 H   0  0  0  0  0  0  0  0  0  0  0  0
    3.1596   -0.1808   -1.1081 H   0  0  0  0  0  0  0  0  0  0  0  0
   -4.0268   -3.4054    2.3308 H   0  0  0  0  0  0  0  0  0  0  0  0
   -2.3643   -3.2003    1.7980 H   0  0  0  0  0  0  0  0  0  0  0  0
   -3.4547   -4.2595    0.8781 H   0  0  0  0  0  0  0  0  0  0  0  0
    1.4370   -2.3834    0.1363 H   0  0  0  0  0  0  0  0  0  0  0  0
   -2.5941    2.9239    1.9037 H   0  0  0  0  0  0  0  0  0  0  0  0
    7.0849   -1.7687   -1.2283 H   0  0  0  0  0  0  0  0  0  0  0  0
   -1.3573    4.9493   -1.0503 H   0  0  0  0  0  0  0  0  0  0  0  0
   -6.0858    1.0818    1.8662 H   0  0  0  0  0  0  0  0  0  0  0  0
   -7.2922   -0.2045   -1.4009 H   0  0  0  0  0  0  0  0  0  0  0  0
    5.8497   -3.7752   -1.5300 H   0  0  0  0  0  0  0  0  0  0  0  0
    4.1102   -3.4831   -1.6280 H   0  0  0  0  0  0  0  0  0  0  0  0
    4.8196   -4.1703   -0.1500 H   0  0  0  0  0  0  0  0  0  0  0  0
   -4.7371   -3.1800   -1.5573 H   0  0  0  0  0  0  0  0  0  0  0  0
   -0.7011   -1.7568   -2.9863 H   0  0  0  0  0  0  0  0  0  0  0  0
    0.8925   -2.5456   -2.9682 H   0  0  0  0  0  0  0  0  0  0  0  0
   -0.3473   -2.9655   -1.7626 H   0  0  0  0  0  0  0  0  0  0  0  0
    3.3894    3.5453   -1.2265 H   0  0  0  0  0  0  0  0  0  0  0  0
  1 12  1  0  0  0  0
  1 18  1  0  0  0  0
  2 15  1  0  0  0  0
  2 17  1  0  0  0  0
  3 18  1  0  0  0  0
  3 23  1  0  0  0  0
  4 15  1  0  0  0  0
  4 29  1  0  0  0  0
  5 13  1  0  0  0  0
  5 64  1  0  0  0  0
  6 14  1  0  0  0  0
  6 66  1  0  0  0  0
  7 19  1  0  0  0  0
  7 67  1  0  0  0  0
  8 21  1  0  0  0  0
  8 68  1  0  0  0  0
  9 22  1  0  0  0  0
  9 72  1  0  0  0  0
 10 28  1  0  0  0  0
 10 76  1  0  0  0  0
 11 31  2  0  0  0  0
 12 13  1  0  0  0  0
 12 15  1  0  0  0  0
 12 37  1  0  0  0  0
 13 14  1  0  0  0  0
 13 38  1  0  0  0  0
 14 17  1  0  0  0  0
 14 39  1  0  0  0  0
 15 40  1  0  0  0  0
 16 20  1  0  0  0  0
 16 24  1  0  0  0  0
 16 26  1  0  0  0  0
 16 27  1  0  0  0  0
 17 28  1  0  0  0  0
 17 42  1  0  0  0  0
 18 19  1  0  0  0  0
 18 41  1  0  0  0  0
 19 21  1  0  0  0  0
 19 43  1  0  0  0  0
 20 25  1  0  0  0  0
 20 30  1  0  0  0  0
 20 44  1  0  0  0  0
 21 22  1  0  0  0  0
 21 45  1  0  0  0  0
 22 23  1  0  0  0  0
 22 46  1  0  0  0  0
 23 32  1  0  0  0  0
 23 47  1  0  0  0  0
 24 31  1  0  0  0  0
 24 48  1  0  0  0  0
 24 49  1  0  0  0  0
 25 34  2  0  0  0  0
 25 35  1  0  0  0  0
 26 50  1  0  0  0  0
 26 51  1  0  0  0  0
 26 52  1  0  0  0  0
 27 53  1  0  0  0  0
 27 54  1  0  0  0  0
 27 55  1  0  0  0  0
 28 56  1  0  0  0  0
 28 57  1  0  0  0  0
 29 33  1  0  0  0  0
 29 36  1  0  0  0  0
 29 58  1  0  0  0  0
 30 33  2  0  0  0  0
 30 59  1  0  0  0  0
 31 34  1  0  0  0  0
 32 60  1  0  0  0  0
 32 61  1  0  0  0  0
 32 62  1  0  0  0  0
 33 63  1  0  0  0  0
 34 65  1  0  0  0  0
 35 69  1  0  0  0  0
 35 70  1  0  0  0  0
 35 71  1  0  0  0  0
 36 73  1  0  0  0  0
 36 74  1  0  0  0  0
 36 75  1  0  0  0  0
M  END
> <PUBCHEM_COMPOUND_CID>
53355121

> <PUBCHEM_CONFORMER_RMSD>
1.2

> <PUBCHEM_CONFORMER_DIVERSEORDER>
1
73
161
67
82
65
8
134
111
51
131
119
90
56
103
45
105
160
24
27
78
63
91
106
25
116
48
122
88
76
50
149
165
159
46
7
58
139
59
85
47
146
96
52
94
101
62
77
162
38
118
136
39
143
87
68
44
89
117
121
86
124
66
156
130
81
114
54
152
92
14
120
137
60
97
28
93
70
21
18
112
13
37
110
6
154
113
35
115
104
42
144
15
43
127
72
140
3
125
135
141
142
33
71
163
168
109
169
26
61
49
166
11
153
34
2
150
147
29
133
123
83
155
148
20
75
57
53
30
23
17
108
99
69
167
100
164
74
129
95
158
132
64
31
138
55
22
41
157
9
36
4
84
128
5
16
32
98
107
19
79
102
151
12
40
126
145
10
80

> <PUBCHEM_MMFF94_PARTIAL_CHARGES>
40
1 -0.56
10 -0.68
11 -0.57
12 0.28
13 0.28
14 0.28
15 0.56
17 0.28
18 0.56
19 0.28
2 -0.56
20 0.28
21 0.28
22 0.28
23 0.28
24 0.06
25 -0.28
28 0.28
29 0.42
3 -0.56
30 -0.29
31 0.49
33 -0.29
34 -0.14
35 0.14
4 -0.56
5 -0.68
59 0.15
6 -0.68
63 0.15
64 0.4
65 0.15
66 0.4
67 0.4
68 0.4
7 -0.68
72 0.4
76 0.4
8 -0.68
9 -0.68

> <PUBCHEM_EFFECTIVE_ROTOR_COUNT>
10

> <PUBCHEM_PHARMACOPHORE_FEATURES>
21
1 1 acceptor
1 10 acceptor
1 10 donor
1 11 acceptor
1 2 acceptor
1 3 acceptor
1 4 acceptor
1 5 acceptor
1 5 donor
1 6 acceptor
1 6 donor
1 7 acceptor
1 7 donor
1 8 acceptor
1 8 donor
1 9 acceptor
1 9 donor
3 16 26 27 hydrophobe
6 16 20 24 25 31 34 rings
6 2 12 13 14 15 17 rings
6 3 18 19 21 22 23 rings

> <PUBCHEM_HEAVY_ATOM_COUNT>
36

> <PUBCHEM_ATOM_DEF_STEREO_COUNT>
12

> <PUBCHEM_ATOM_UDEF_STEREO_COUNT>
0

> <PUBCHEM_BOND_DEF_STEREO_COUNT>
1

> <PUBCHEM_BOND_UDEF_STEREO_COUNT>
0

> <PUBCHEM_ISOTOPIC_ATOM_COUNT>
0

> <PUBCHEM_COMPONENT_COUNT>
1

> <PUBCHEM_CACTVS_TAUTO_COUNT>
13

> <PUBCHEM_CONFORMER_ID>
032E227100000001

> <PUBCHEM_MMFF94_ENERGY>
93.5077

> <PUBCHEM_FEATURE_SELFOVERLAP>
106.7

> <PUBCHEM_SHAPE_FINGERPRINT>
11621639 179 17460571673422428197
12107698 1 18334573547355156680
12422481 6 17988923379275470647
12516196 113 18408040727552026111
12596602 18 17821727192181695480
12857493 111 18336254679307857637
13782708 43 17846216601476956310
140371 6 18339932506830809989
14068700 675 18334287678267985017
14068700 686 18271811155582771166
14117953 113 18343300375677042423
14394314 77 18336271137753215545
1454969 45 18411984684877820604
14840074 17 18202276996263879551
14955137 171 18343022216030156604
15183329 4 10303816454026738510
15721738 202 18342178873669453120
15775530 1 17482566182631491398
15927050 60 17691128562402328524
18608769 82 18343861122243876234
20567600 70 18261674873612693251
20642791 13 18199472069994593141
21033648 29 17846203416011032602
21458453 9 18201718496171227626
22889206 1 17482256515511179217
23559900 14 18336543914972765235
373842 8 18339644558789523916
392239 28 18408039598033331770
57527293 21 18192155884899779696
6004065 56 18339916121821089743
613672 6 18335425677145797043
7226269 152 18261110743197451571

> <PUBCHEM_SHAPE_MULTIPOLES>
676.3
17.1
4.84
1.67
3.14
4.11
0.51
-11.31
2.78
-2.44
-0.9
1.21
-0.74
0.02

> <PUBCHEM_SHAPE_SELFOVERLAP>
1392.76

> <PUBCHEM_SHAPE_VOLUME>
383.1

> <PUBCHEM_COORDINATE_TYPE>
2
5
10

$$$$
