53355015
  -OEChem-09062006573D

 76 78  0     1  0  0  0  0  0999 V2000
   -3.0800    0.5162   -0.3602 O   0  0  0  0  0  0  0  0  0  0  0  0
    0.4049    1.6046   -0.5019 O   0  0  0  0  0  0  0  0  0  0  0  0
   -3.6514   -0.9629    1.4053 O   0  0  0  0  0  0  0  0  0  0  0  0
   -0.4702   -0.5573   -0.5699 O   0  0  0  0  0  0  0  0  0  0  0  0
   -3.0930    3.1116    1.0342 O   0  0  0  0  0  0  0  0  0  0  0  0
   -1.1496    4.9008   -0.1394 O   0  0  0  0  0  0  0  0  0  0  0  0
   -6.2708    0.2187    1.3513 O   0  0  0  0  0  0  0  0  0  0  0  0
   -7.0461   -1.0998   -0.9737 O   0  0  0  0  0  0  0  0  0  0  0  0
   -5.3312   -3.3762   -0.8183 O   0  0  0  0  0  0  0  0  0  0  0  0
    2.5012    3.1538   -1.3742 O   0  0  0  0  0  0  0  0  0  0  0  0
    7.2960    1.0676    0.0779 O   0  0  0  0  0  0  0  0  0  0  0  0
   -1.9230    1.2279    0.0780 C   0  0  2  0  0  0  0  0  0  0  0  0
   -2.1899    2.7309   -0.0050 C   0  0  2  0  0  0  0  0  0  0  0  0
   -0.9004    3.5326    0.1720 C   0  0  1  0  0  0  0  0  0  0  0  0
   -0.7465    0.8223   -0.8098 C   0  0  1  0  0  0  0  0  0  0  0  0
    5.2711   -1.9752   -0.2186 C   0  0  0  0  0  0  0  0  0  0  0  0
    0.2020    2.9977   -0.7452 C   0  0  1  0  0  0  0  0  0  0  0  0
   -3.9673    0.2547    0.7216 C   0  0  2  0  0  0  0  0  0  0  0  0
   -5.4076    0.2285    0.2130 C   0  0  1  0  0  0  0  0  0  0  0  0
    4.0087   -1.4432    0.5350 C   0  0  1  0  0  0  0  0  0  0  0  0
   -5.6616   -1.0122   -0.6447 C   0  0  1  0  0  0  0  0  0  0  0  0
   -5.2376   -2.2833    0.0921 C   0  0  2  0  0  0  0  0  0  0  0  0
   -3.7978   -2.1402    0.6048 C   0  0  2  0  0  0  0  0  0  0  0  0
    6.0707   -0.7942   -0.8036 C   0  0  0  0  0  0  0  0  0  0  0  0
    4.3637   -0.3410    1.5203 C   0  0  0  0  0  0  0  0  0  0  0  0
    6.1682   -2.7795    0.7568 C   0  0  0  0  0  0  0  0  0  0  0  0
    4.8887   -2.9373   -1.3646 C   0  0  0  0  0  0  0  0  0  0  0  0
    1.5313    3.7054   -0.5026 C   0  0  0  0  0  0  0  0  0  0  0  0
    0.6164   -1.0164   -1.3698 C   0  0  1  0  0  0  0  0  0  0  0  0
    2.9217   -0.9592   -0.3884 C   0  0  0  0  0  0  0  0  0  0  0  0
    6.3525    0.2900    0.2157 C   0  0  0  0  0  0  0  0  0  0  0  0
   -3.3795   -3.3241    1.4726 C   0  0  0  0  0  0  0  0  0  0  0  0
    1.6968   -1.5019   -0.4490 C   0  0  0  0  0  0  0  0  0  0  0  0
    5.4405    0.4473    1.3747 C   0  0  0  0  0  0  0  0  0  0  0  0
    3.4417   -0.1741    2.6971 C   0  0  0  0  0  0  0  0  0  0  0  0
    0.1273   -2.1324   -2.2835 C   0  0  0  0  0  0  0  0  0  0  0  0
   -1.6812    0.9427    1.1125 H   0  0  0  0  0  0  0  0  0  0  0  0
   -2.6854    2.9847   -0.9495 H   0  0  0  0  0  0  0  0  0  0  0  0
   -0.5790    3.4889    1.2198 H   0  0  0  0  0  0  0  0  0  0  0  0
   -1.0119    0.9382   -1.8698 H   0  0  0  0  0  0  0  0  0  0  0  0
   -3.9057    1.0253    1.4929 H   0  0  0  0  0  0  0  0  0  0  0  0
   -0.0652    3.1309   -1.8024 H   0  0  0  0  0  0  0  0  0  0  0  0
   -5.6407    1.1278   -0.3688 H   0  0  0  0  0  0  0  0  0  0  0  0
    3.6179   -2.2897    1.1193 H   0  0  0  0  0  0  0  0  0  0  0  0
   -5.1142   -0.9343   -1.5924 H   0  0  0  0  0  0  0  0  0  0  0  0
   -5.9304   -2.4839    0.9178 H   0  0  0  0  0  0  0  0  0  0  0  0
   -3.0965   -2.0888   -0.2381 H   0  0  0  0  0  0  0  0  0  0  0  0
    7.0331   -1.1510   -1.1909 H   0  0  0  0  0  0  0  0  0  0  0  0
    5.5338   -0.3250   -1.6367 H   0  0  0  0  0  0  0  0  0  0  0  0
    7.0600   -3.1610    0.2459 H   0  0  0  0  0  0  0  0  0  0  0  0
    6.5135   -2.1816    1.6057 H   0  0  0  0  0  0  0  0  0  0  0  0
    5.6274   -3.6425    1.1622 H   0  0  0  0  0  0  0  0  0  0  0  0
    4.3340   -2.4291   -2.1606 H   0  0  0  0  0  0  0  0  0  0  0  0
    5.7825   -3.3716   -1.8275 H   0  0  0  0  0  0  0  0  0  0  0  0
    4.2708   -3.7637   -0.9955 H   0  0  0  0  0  0  0  0  0  0  0  0
    1.4562    4.7798   -0.6951 H   0  0  0  0  0  0  0  0  0  0  0  0
    1.8767    3.5442    0.5242 H   0  0  0  0  0  0  0  0  0  0  0  0
    1.0069   -0.2219   -2.0203 H   0  0  0  0  0  0  0  0  0  0  0  0
    3.1551   -0.1188   -1.0387 H   0  0  0  0  0  0  0  0  0  0  0  0
   -4.0209   -3.4061    2.3570 H   0  0  0  0  0  0  0  0  0  0  0  0
   -2.3561   -3.1850    1.8381 H   0  0  0  0  0  0  0  0  0  0  0  0
   -3.4246   -4.2655    0.9172 H   0  0  0  0  0  0  0  0  0  0  0  0
    1.4513   -2.3368    0.2033 H   0  0  0  0  0  0  0  0  0  0  0  0
   -2.6624    2.9366    1.8884 H   0  0  0  0  0  0  0  0  0  0  0  0
    5.6799    1.2291    2.0873 H   0  0  0  0  0  0  0  0  0  0  0  0
   -1.4227    4.9518   -1.0713 H   0  0  0  0  0  0  0  0  0  0  0  0
   -6.1306    1.0510    1.8341 H   0  0  0  0  0  0  0  0  0  0  0  0
   -7.2900   -0.2780   -1.4328 H   0  0  0  0  0  0  0  0  0  0  0  0
    3.7757    0.6204    3.3730 H   0  0  0  0  0  0  0  0  0  0  0  0
    3.3939   -1.1021    3.2761 H   0  0  0  0  0  0  0  0  0  0  0  0
    2.4311    0.0806    2.3623 H   0  0  0  0  0  0  0  0  0  0  0  0
   -4.6970   -3.2228   -1.5394 H   0  0  0  0  0  0  0  0  0  0  0  0
   -0.6654   -1.7619   -2.9429 H   0  0  0  0  0  0  0  0  0  0  0  0
    0.9376   -2.5308   -2.9027 H   0  0  0  0  0  0  0  0  0  0  0  0
   -0.3086   -2.9556   -1.7054 H   0  0  0  0  0  0  0  0  0  0  0  0
    3.3413    3.6091   -1.1943 H   0  0  0  0  0  0  0  0  0  0  0  0
  1 12  1  0  0  0  0
  1 18  1  0  0  0  0
  2 15  1  0  0  0  0
  2 17  1  0  0  0  0
  3 18  1  0  0  0  0
  3 23  1  0  0  0  0
  4 15  1  0  0  0  0
  4 29  1  0  0  0  0
  5 13  1  0  0  0  0
  5 64  1  0  0  0  0
  6 14  1  0  0  0  0
  6 66  1  0  0  0  0
  7 19  1  0  0  0  0
  7 67  1  0  0  0  0
  8 21  1  0  0  0  0
  8 68  1  0  0  0  0
  9 22  1  0  0  0  0
  9 72  1  0  0  0  0
 10 28  1  0  0  0  0
 10 76  1  0  0  0  0
 11 31  2  0  0  0  0
 12 13  1  0  0  0  0
 12 15  1  0  0  0  0
 12 37  1  0  0  0  0
 13 14  1  0  0  0  0
 13 38  1  0  0  0  0
 14 17  1  0  0  0  0
 14 39  1  0  0  0  0
 15 40  1  0  0  0  0
 16 20  1  0  0  0  0
 16 24  1  0  0  0  0
 16 26  1  0  0  0  0
 16 27  1  0  0  0  0
 17 28  1  0  0  0  0
 17 42  1  0  0  0  0
 18 19  1  0  0  0  0
 18 41  1  0  0  0  0
 19 21  1  0  0  0  0
 19 43  1  0  0  0  0
 20 25  1  0  0  0  0
 20 30  1  0  0  0  0
 20 44  1  0  0  0  0
 21 22  1  0  0  0  0
 21 45  1  0  0  0  0
 22 23  1  0  0  0  0
 22 46  1  0  0  0  0
 23 32  1  0  0  0  0
 23 47  1  0  0  0  0
 24 31  1  0  0  0  0
 24 48  1  0  0  0  0
 24 49  1  0  0  0  0
 25 34  2  0  0  0  0
 25 35  1  0  0  0  0
 26 50  1  0  0  0  0
 26 51  1  0  0  0  0
 26 52  1  0  0  0  0
 27 53  1  0  0  0  0
 27 54  1  0  0  0  0
 27 55  1  0  0  0  0
 28 56  1  0  0  0  0
 28 57  1  0  0  0  0
 29 33  1  0  0  0  0
 29 36  1  0  0  0  0
 29 58  1  0  0  0  0
 30 33  2  0  0  0  0
 30 59  1  0  0  0  0
 31 34  1  0  0  0  0
 32 60  1  0  0  0  0
 32 61  1  0  0  0  0
 32 62  1  0  0  0  0
 33 63  1  0  0  0  0
 34 65  1  0  0  0  0
 35 69  1  0  0  0  0
 35 70  1  0  0  0  0
 35 71  1  0  0  0  0
 36 73  1  0  0  0  0
 36 74  1  0  0  0  0
 36 75  1  0  0  0  0
M  END
> <PUBCHEM_COMPOUND_CID>
53355015

> <PUBCHEM_CONFORMER_RMSD>
1.2

> <PUBCHEM_CONFORMER_DIVERSEORDER>
1
90
97
138
12
78
108
136
55
137
38
71
36
53
39
62
52
105
98
130
115
54
25
6
112
89
118
114
4
149
46
16
95
151
41
51
21
110
162
63
159
3
157
31
64
109
145
117
88
131
34
8
17
99
103
40
28
13
106
126
113
148
58
133
22
134
122
5
127
121
83
65
93
19
45
120
9
70
35
44
142
132
75
164
10
73
37
20
85
139
87
86
67
92
141
154
129
155
161
29
74
143
111
56
15
166
33
94
2
24
76
81
49
91
128
42
48
124
150
146
66
153
32
107
60
14
100
160
77
72
144
123
152
102
80
47
84
57
43
119
69
26
68
23
158
104
163
147
18
140
7
156
50
27
82
165
11
101
135
96
116
79
59
61
30
125

> <PUBCHEM_MMFF94_PARTIAL_CHARGES>
40
1 -0.56
10 -0.68
11 -0.57
12 0.28
13 0.28
14 0.28
15 0.56
17 0.28
18 0.56
19 0.28
2 -0.56
20 0.28
21 0.28
22 0.28
23 0.28
24 0.06
25 -0.28
28 0.28
29 0.42
3 -0.56
30 -0.29
31 0.49
33 -0.29
34 -0.14
35 0.14
4 -0.56
5 -0.68
59 0.15
6 -0.68
63 0.15
64 0.4
65 0.15
66 0.4
67 0.4
68 0.4
7 -0.68
72 0.4
76 0.4
8 -0.68
9 -0.68

> <PUBCHEM_EFFECTIVE_ROTOR_COUNT>
10

> <PUBCHEM_PHARMACOPHORE_FEATURES>
21
1 1 acceptor
1 10 acceptor
1 10 donor
1 11 acceptor
1 2 acceptor
1 3 acceptor
1 4 acceptor
1 5 acceptor
1 5 donor
1 6 acceptor
1 6 donor
1 7 acceptor
1 7 donor
1 8 acceptor
1 8 donor
1 9 acceptor
1 9 donor
3 16 26 27 hydrophobe
6 16 20 24 25 31 34 rings
6 2 12 13 14 15 17 rings
6 3 18 19 21 22 23 rings

> <PUBCHEM_HEAVY_ATOM_COUNT>
36

> <PUBCHEM_ATOM_DEF_STEREO_COUNT>
12

> <PUBCHEM_ATOM_UDEF_STEREO_COUNT>
0

> <PUBCHEM_BOND_DEF_STEREO_COUNT>
1

> <PUBCHEM_BOND_UDEF_STEREO_COUNT>
0

> <PUBCHEM_ISOTOPIC_ATOM_COUNT>
0

> <PUBCHEM_COMPONENT_COUNT>
1

> <PUBCHEM_CACTVS_TAUTO_COUNT>
13

> <PUBCHEM_CONFORMER_ID>
032E220700000001

> <PUBCHEM_MMFF94_ENERGY>
93.8433

> <PUBCHEM_FEATURE_SELFOVERLAP>
106.7

> <PUBCHEM_SHAPE_FINGERPRINT>
10290309 65 17254845169851434221
11135609 201 18200581627835497226
11621639 179 17460289103213213325
12202916 173 18412541003782454631
12422481 6 17917992776076693127
12516196 113 18408322202565640534
12596602 18 17894910694679496808
12857493 111 18335690634137769413
13782708 43 17845937329855372294
140371 6 18339932506825509253
14068700 686 18271811159835462502
14117953 113 18343582937322715991
14394314 77 18335987459474080313
1454969 45 18412825815462508964
14840074 17 18202557376029197965
14955137 171 18343022216030143604
15183329 4 13768207155903860495
15775530 1 17554059735794285310
15927050 60 17691128562370647556
18608769 82 18343579660157199362
20567600 70 18261111932201597403
20642791 13 18271248193345496461
21033648 29 17774143627170937466
21458453 9 18201998871599419698
22889206 1 17481975044876960585
23559900 14 18335979869823737027
3383291 50 18261119599700332283
373842 8 18339080505145694972
392239 28 18408889520500438466
5104073 3 18268987588785259074
613672 6 18335142011746256499
7226269 152 18261392213921379939

> <PUBCHEM_SHAPE_MULTIPOLES>
676.3
17.26
4.93
1.62
3.77
4.29
0.35
-11.64
2.86
-2.26
-0.76
0.87
-0.67
0.12

> <PUBCHEM_SHAPE_SELFOVERLAP>
1392.772

> <PUBCHEM_SHAPE_VOLUME>
382.8

> <PUBCHEM_COORDINATE_TYPE>
2
5
10

$$$$
