118284
  -OEChem-09062006403D

 37 37  0     1  0  0  0  0  0999 V2000
    3.0193   -1.7514    1.4207 O   0  0  0  0  0  0  0  0  0  0  0  0
   -3.2436   -0.3388    1.6696 O   0  0  0  0  0  0  0  0  0  0  0  0
    1.5568    1.2390   -0.1265 C   0  0  0  0  0  0  0  0  0  0  0  0
    0.2631    0.5562   -0.6793 C   0  0  2  0  0  0  0  0  0  0  0  0
   -0.9707    0.7389    0.2194 C   0  0  0  0  0  0  0  0  0  0  0  0
    2.1113    0.4373    1.0671 C   0  0  0  0  0  0  0  0  0  0  0  0
    0.4763   -0.9300   -0.9278 C   0  0  0  0  0  0  0  0  0  0  0  0
    2.6279    1.3162   -1.2446 C   0  0  0  0  0  0  0  0  0  0  0  0
    1.2889    2.6872    0.3323 C   0  0  0  0  0  0  0  0  0  0  0  0
   -2.2241    0.2012   -0.4633 C   0  0  0  0  0  0  0  0  0  0  0  0
    2.2438   -1.0427    0.7800 C   0  0  0  0  0  0  0  0  0  0  0  0
    1.3859   -1.6570   -0.2607 C   0  0  0  0  0  0  0  0  0  0  0  0
   -0.3772   -1.5628   -1.9927 C   0  0  0  0  0  0  0  0  0  0  0  0
   -3.4571    0.3407    0.4352 C   0  0  1  0  0  0  0  0  0  0  0  0
   -4.7007   -0.2341   -0.2296 C   0  0  0  0  0  0  0  0  0  0  0  0
    0.0478    1.0385   -1.6440 H   0  0  0  0  0  0  0  0  0  0  0  0
   -0.8060    0.2406    1.1813 H   0  0  0  0  0  0  0  0  0  0  0  0
   -1.1431    1.7992    0.4301 H   0  0  0  0  0  0  0  0  0  0  0  0
    1.4612    0.5377    1.9445 H   0  0  0  0  0  0  0  0  0  0  0  0
    3.1022    0.8176    1.3449 H   0  0  0  0  0  0  0  0  0  0  0  0
    2.9058    0.3316   -1.6327 H   0  0  0  0  0  0  0  0  0  0  0  0
    2.2659    1.9123   -2.0903 H   0  0  0  0  0  0  0  0  0  0  0  0
    3.5461    1.7897   -0.8777 H   0  0  0  0  0  0  0  0  0  0  0  0
    2.2260    3.1998    0.5805 H   0  0  0  0  0  0  0  0  0  0  0  0
    0.7938    3.2658   -0.4553 H   0  0  0  0  0  0  0  0  0  0  0  0
    0.6657    2.7266    1.2316 H   0  0  0  0  0  0  0  0  0  0  0  0
   -2.3961    0.7011   -1.4228 H   0  0  0  0  0  0  0  0  0  0  0  0
   -2.1455   -0.8709   -0.6209 H   0  0  0  0  0  0  0  0  0  0  0  0
    1.5227   -2.7151   -0.4561 H   0  0  0  0  0  0  0  0  0  0  0  0
   -1.0571   -2.3128   -1.5774 H   0  0  0  0  0  0  0  0  0  0  0  0
    0.2694   -2.0835   -2.7103 H   0  0  0  0  0  0  0  0  0  0  0  0
   -0.9396   -0.8330   -2.5821 H   0  0  0  0  0  0  0  0  0  0  0  0
   -3.6390    1.3981    0.6611 H   0  0  0  0  0  0  0  0  0  0  0  0
   -4.5840   -1.3064   -0.4212 H   0  0  0  0  0  0  0  0  0  0  0  0
   -5.5687   -0.1266    0.4299 H   0  0  0  0  0  0  0  0  0  0  0  0
   -4.9163    0.2712   -1.1757 H   0  0  0  0  0  0  0  0  0  0  0  0
   -2.6840    0.2273    2.2273 H   0  0  0  0  0  0  0  0  0  0  0  0
  1 11  2  0  0  0  0
  2 14  1  0  0  0  0
  2 37  1  0  0  0  0
  3  4  1  0  0  0  0
  3  6  1  0  0  0  0
  3  8  1  0  0  0  0
  3  9  1  0  0  0  0
  4  5  1  0  0  0  0
  4  7  1  0  0  0  0
  4 16  1  0  0  0  0
  5 10  1  0  0  0  0
  5 17  1  0  0  0  0
  5 18  1  0  0  0  0
  6 11  1  0  0  0  0
  6 19  1  0  0  0  0
  6 20  1  0  0  0  0
  7 12  2  0  0  0  0
  7 13  1  0  0  0  0
  8 21  1  0  0  0  0
  8 22  1  0  0  0  0
  8 23  1  0  0  0  0
  9 24  1  0  0  0  0
  9 25  1  0  0  0  0
  9 26  1  0  0  0  0
 10 14  1  0  0  0  0
 10 27  1  0  0  0  0
 10 28  1  0  0  0  0
 11 12  1  0  0  0  0
 12 29  1  0  0  0  0
 13 30  1  0  0  0  0
 13 31  1  0  0  0  0
 13 32  1  0  0  0  0
 14 15  1  0  0  0  0
 14 33  1  0  0  0  0
 15 34  1  0  0  0  0
 15 35  1  0  0  0  0
 15 36  1  0  0  0  0
M  END
> <PUBCHEM_COMPOUND_CID>
118284

> <PUBCHEM_CONFORMER_RMSD>
0.6

> <PUBCHEM_CONFORMER_DIVERSEORDER>
5
6
10
15
17
9
16
2
12
4
1
14
18
7
11
13
19
3
8

> <PUBCHEM_MMFF94_PARTIAL_CHARGES>
11
1 -0.57
11 0.49
12 -0.14
13 0.14
14 0.28
2 -0.68
29 0.15
37 0.4
4 0.14
6 0.06
7 -0.28

> <PUBCHEM_EFFECTIVE_ROTOR_COUNT>
3.6

> <PUBCHEM_PHARMACOPHORE_FEATURES>
5
1 1 acceptor
1 2 acceptor
1 2 donor
3 3 8 9 hydrophobe
6 3 4 6 7 11 12 rings

> <PUBCHEM_HEAVY_ATOM_COUNT>
15

> <PUBCHEM_ATOM_DEF_STEREO_COUNT>
0

> <PUBCHEM_ATOM_UDEF_STEREO_COUNT>
2

> <PUBCHEM_BOND_DEF_STEREO_COUNT>
0

> <PUBCHEM_BOND_UDEF_STEREO_COUNT>
0

> <PUBCHEM_ISOTOPIC_ATOM_COUNT>
0

> <PUBCHEM_COMPONENT_COUNT>
1

> <PUBCHEM_CACTVS_TAUTO_COUNT>
8

> <PUBCHEM_CONFORMER_ID>
0001CE0C00000005

> <PUBCHEM_MMFF94_ENERGY>
38.2086

> <PUBCHEM_FEATURE_SELFOVERLAP>
25.371

> <PUBCHEM_SHAPE_FINGERPRINT>
10465860 71 14273743906425610955
10610426 29 16734103423568594426
10980938 120 18413110579988750085
11471102 22 18270675359796523371
11680611 10 18056462066354292742
12202030 40 16371826488225569114
12251169 10 18341041973860325499
12532896 13 17832148590791440636
13134695 92 18336530638807204220
13296908 3 17385731309358076025
13538477 17 18128808823412982839
14617773 55 17627761413248123318
14817 1 12744249354525172078
15422964 175 17900526900931752618
15775835 57 18271804691403418845
16945 1 18412257350380793212
17357990 137 17917428765166129140
18186145 218 15625953023317096185
20559304 39 18343865498087453193
20645477 70 18187080646626404435
21524375 3 17982736568985593204
21730867 7 17603591854246565633
22112679 90 18129359636163255094
22802520 49 11023564457934378859
230 275 16558751195909564841
23558518 356 17331112209923119172
23559900 14 17458343031096215479
2748010 2 17625814968566224182
276578 36 18340208595675808076
3060560 45 18131079254826661269
528862 383 18333448759580826564
81228 2 17402618441597028388
81539 233 17895485846155172804
9999458 23 18116442620515094020

> <PUBCHEM_SHAPE_MULTIPOLES>
296.95
5.93
2.07
1.48
7.98
0.39
0
-0.04
-1.66
-1.76
0.22
-0.38
-0.53
-0.84

> <PUBCHEM_SHAPE_SELFOVERLAP>
590.252

> <PUBCHEM_SHAPE_VOLUME>
176

> <PUBCHEM_COORDINATE_TYPE>
2
5
10

$$$$
