53355122
  -OEChem-09062006353D

 78 80  0     1  0  0  0  0  0999 V2000
   -2.7996    0.4206   -0.2125 O   0  0  0  0  0  0  0  0  0  0  0  0
   -0.0271    0.1780   -0.7246 O   0  0  0  0  0  0  0  0  0  0  0  0
    0.2240    2.4672   -0.3496 O   0  0  0  0  0  0  0  0  0  0  0  0
   -2.7750   -1.3952    1.3151 O   0  0  0  0  0  0  0  0  0  0  0  0
   -3.3926    2.6787    1.5847 O   0  0  0  0  0  0  0  0  0  0  0  0
   -2.1335    5.0960    0.6222 O   0  0  0  0  0  0  0  0  0  0  0  0
   -5.6110   -1.0155    1.5854 O   0  0  0  0  0  0  0  0  0  0  0  0
   -6.2099   -2.1562   -0.8814 O   0  0  0  0  0  0  0  0  0  0  0  0
   -3.9298   -3.8462   -1.1848 O   0  0  0  0  0  0  0  0  0  0  0  0
    5.3319   -0.7733    3.1944 O   0  0  0  0  0  0  0  0  0  0  0  0
    1.7235    4.6579   -1.0620 O   0  0  0  0  0  0  0  0  0  0  0  0
    5.3831   -0.3941   -0.4563 C   0  0  0  0  0  0  0  0  0  0  0  0
    4.0664   -1.1851   -0.7501 C   0  0  2  0  0  0  0  0  0  0  0  0
    2.8307   -0.2903   -0.9376 C   0  0  0  0  0  0  0  0  0  0  0  0
   -1.8462    1.3632    0.2772 C   0  0  1  0  0  0  0  0  0  0  0  0
    5.3641    0.1515    0.9847 C   0  0  0  0  0  0  0  0  0  0  0  0
   -0.6924    1.4408   -0.7226 C   0  0  2  0  0  0  0  0  0  0  0  0
   -2.5216    2.7233    0.4535 C   0  0  2  0  0  0  0  0  0  0  0  0
    1.7993   -0.9693   -1.8329 C   0  0  0  0  0  0  0  0  0  0  0  0
    3.7734   -2.2090    0.3368 C   0  0  0  0  0  0  0  0  0  0  0  0
   -1.4906    3.8262    0.6937 C   0  0  1  0  0  0  0  0  0  0  0  0
    0.5441   -0.1065   -1.9988 C   0  0  1  0  0  0  0  0  0  0  0  0
   -0.3751    3.7642   -0.3523 C   0  0  1  0  0  0  0  0  0  0  0  0
    5.5709    0.7876   -1.4299 C   0  0  0  0  0  0  0  0  0  0  0  0
    6.6076   -1.3260   -0.6442 C   0  0  0  0  0  0  0  0  0  0  0  0
   -3.4754   -0.2343    0.8554 C   0  0  2  0  0  0  0  0  0  0  0  0
   -4.8945   -0.5980    0.4221 C   0  0  1  0  0  0  0  0  0  0  0  0
   -4.8780   -1.7246   -0.6123 C   0  0  1  0  0  0  0  0  0  0  0  0
    5.0073   -0.8987    2.0143 C   0  0  0  0  0  0  0  0  0  0  0  0
   -4.0543   -2.9130   -0.1144 C   0  0  2  0  0  0  0  0  0  0  0  0
    4.2088   -2.0763    1.5993 C   0  0  0  0  0  0  0  0  0  0  0  0
   -2.6674   -2.4392    0.3419 C   0  0  2  0  0  0  0  0  0  0  0  0
    2.9767   -3.4168   -0.0747 C   0  0  0  0  0  0  0  0  0  0  0  0
    0.7259    4.7800   -0.0647 C   0  0  0  0  0  0  0  0  0  0  0  0
   -0.5024   -0.8025   -2.8585 C   0  0  0  0  0  0  0  0  0  0  0  0
   -1.8610   -3.5651    0.9834 C   0  0  0  0  0  0  0  0  0  0  0  0
    4.2475   -1.7237   -1.6915 H   0  0  0  0  0  0  0  0  0  0  0  0
    3.0787    0.6576   -1.4198 H   0  0  0  0  0  0  0  0  0  0  0  0
    2.3939   -0.0317    0.0352 H   0  0  0  0  0  0  0  0  0  0  0  0
   -1.4394    1.0151    1.2381 H   0  0  0  0  0  0  0  0  0  0  0  0
    6.3477    0.5618    1.2442 H   0  0  0  0  0  0  0  0  0  0  0  0
    4.6289    0.9593    1.0859 H   0  0  0  0  0  0  0  0  0  0  0  0
   -1.0990    1.6598   -1.7194 H   0  0  0  0  0  0  0  0  0  0  0  0
   -3.1543    2.9566   -0.4110 H   0  0  0  0  0  0  0  0  0  0  0  0
    2.2339   -1.1772   -2.8182 H   0  0  0  0  0  0  0  0  0  0  0  0
    1.4776   -1.9203   -1.4120 H   0  0  0  0  0  0  0  0  0  0  0  0
   -1.0727    3.7277    1.7031 H   0  0  0  0  0  0  0  0  0  0  0  0
    0.8500    0.8261   -2.4929 H   0  0  0  0  0  0  0  0  0  0  0  0
   -0.7666    3.9655   -1.3589 H   0  0  0  0  0  0  0  0  0  0  0  0
    5.4191    0.4732   -2.4685 H   0  0  0  0  0  0  0  0  0  0  0  0
    6.5859    1.1964   -1.3557 H   0  0  0  0  0  0  0  0  0  0  0  0
    6.6638   -1.6921   -1.6759 H   0  0  0  0  0  0  0  0  0  0  0  0
    6.5782   -2.2005    0.0128 H   0  0  0  0  0  0  0  0  0  0  0  0
    7.5430   -0.7949   -0.4324 H   0  0  0  0  0  0  0  0  0  0  0  0
    4.8948    1.6212   -1.2159 H   0  0  0  0  0  0  0  0  0  0  0  0
   -3.5553    0.4041    1.7378 H   0  0  0  0  0  0  0  0  0  0  0  0
   -5.4188    0.2704    0.0069 H   0  0  0  0  0  0  0  0  0  0  0  0
   -4.4642   -1.3599   -1.5609 H   0  0  0  0  0  0  0  0  0  0  0  0
   -4.5848   -3.4182    0.7013 H   0  0  0  0  0  0  0  0  0  0  0  0
    3.9901   -2.8185    2.3594 H   0  0  0  0  0  0  0  0  0  0  0  0
   -2.0912   -2.0697   -0.5131 H   0  0  0  0  0  0  0  0  0  0  0  0
    1.9095   -3.2648    0.1085 H   0  0  0  0  0  0  0  0  0  0  0  0
    3.2804   -4.2962    0.5056 H   0  0  0  0  0  0  0  0  0  0  0  0
    3.1376   -3.6696   -1.1272 H   0  0  0  0  0  0  0  0  0  0  0  0
    1.1969    4.5808    0.9038 H   0  0  0  0  0  0  0  0  0  0  0  0
    0.3409    5.8041   -0.0762 H   0  0  0  0  0  0  0  0  0  0  0  0
   -0.1127   -1.0046   -3.8613 H   0  0  0  0  0  0  0  0  0  0  0  0
   -1.4112   -0.2015   -2.9596 H   0  0  0  0  0  0  0  0  0  0  0  0
   -0.8041   -1.7557   -2.4124 H   0  0  0  0  0  0  0  0  0  0  0  0
   -2.8522    2.5143    2.3764 H   0  0  0  0  0  0  0  0  0  0  0  0
   -2.3687   -3.9512    1.8740 H   0  0  0  0  0  0  0  0  0  0  0  0
   -0.8848   -3.1930    1.3139 H   0  0  0  0  0  0  0  0  0  0  0  0
   -1.6984   -4.3913    0.2851 H   0  0  0  0  0  0  0  0  0  0  0  0
   -2.4966    5.1988   -0.2741 H   0  0  0  0  0  0  0  0  0  0  0  0
   -5.6596   -0.2552    2.1897 H   0  0  0  0  0  0  0  0  0  0  0  0
   -6.7117   -1.3818   -1.1881 H   0  0  0  0  0  0  0  0  0  0  0  0
   -3.4307   -3.4180   -1.9011 H   0  0  0  0  0  0  0  0  0  0  0  0
    2.4162    5.3086   -0.8565 H   0  0  0  0  0  0  0  0  0  0  0  0
  1 15  1  0  0  0  0
  1 26  1  0  0  0  0
  2 17  1  0  0  0  0
  2 22  1  0  0  0  0
  3 17  1  0  0  0  0
  3 23  1  0  0  0  0
  4 26  1  0  0  0  0
  4 32  1  0  0  0  0
  5 18  1  0  0  0  0
  5 70  1  0  0  0  0
  6 21  1  0  0  0  0
  6 74  1  0  0  0  0
  7 27  1  0  0  0  0
  7 75  1  0  0  0  0
  8 28  1  0  0  0  0
  8 76  1  0  0  0  0
  9 30  1  0  0  0  0
  9 77  1  0  0  0  0
 10 29  2  0  0  0  0
 11 34  1  0  0  0  0
 11 78  1  0  0  0  0
 12 13  1  0  0  0  0
 12 16  1  0  0  0  0
 12 24  1  0  0  0  0
 12 25  1  0  0  0  0
 13 14  1  0  0  0  0
 13 20  1  0  0  0  0
 13 37  1  0  0  0  0
 14 19  1  0  0  0  0
 14 38  1  0  0  0  0
 14 39  1  0  0  0  0
 15 17  1  0  0  0  0
 15 18  1  0  0  0  0
 15 40  1  0  0  0  0
 16 29  1  0  0  0  0
 16 41  1  0  0  0  0
 16 42  1  0  0  0  0
 17 43  1  0  0  0  0
 18 21  1  0  0  0  0
 18 44  1  0  0  0  0
 19 22  1  0  0  0  0
 19 45  1  0  0  0  0
 19 46  1  0  0  0  0
 20 31  2  0  0  0  0
 20 33  1  0  0  0  0
 21 23  1  0  0  0  0
 21 47  1  0  0  0  0
 22 35  1  0  0  0  0
 22 48  1  0  0  0  0
 23 34  1  0  0  0  0
 23 49  1  0  0  0  0
 24 50  1  0  0  0  0
 24 51  1  0  0  0  0
 24 55  1  0  0  0  0
 25 52  1  0  0  0  0
 25 53  1  0  0  0  0
 25 54  1  0  0  0  0
 26 27  1  0  0  0  0
 26 56  1  0  0  0  0
 27 28  1  0  0  0  0
 27 57  1  0  0  0  0
 28 30  1  0  0  0  0
 28 58  1  0  0  0  0
 29 31  1  0  0  0  0
 30 32  1  0  0  0  0
 30 59  1  0  0  0  0
 31 60  1  0  0  0  0
 32 36  1  0  0  0  0
 32 61  1  0  0  0  0
 33 62  1  0  0  0  0
 33 63  1  0  0  0  0
 33 64  1  0  0  0  0
 34 65  1  0  0  0  0
 34 66  1  0  0  0  0
 35 67  1  0  0  0  0
 35 68  1  0  0  0  0
 35 69  1  0  0  0  0
 36 71  1  0  0  0  0
 36 72  1  0  0  0  0
 36 73  1  0  0  0  0
M  END
> <PUBCHEM_COMPOUND_CID>
53355122

> <PUBCHEM_CONFORMER_RMSD>
1.2

> <PUBCHEM_CONFORMER_DIVERSEORDER>
1
90
95
65
17
14
116
146
121
28
75
9
20
87
163
166
66
44
145
131
7
76
85
107
33
117
88
37
35
16
18
110
68
31
99
137
153
104
109
82
152
70
36
96
26
72
132
149
32
156
108
63
159
8
111
48
122
102
105
53
143
139
56
100
15
125
168
115
11
4
157
19
69
6
93
55
67
119
103
12
51
126
24
3
118
136
133
98
124
130
160
101
161
41
92
29
54
140
74
148
154
22
167
89
50
135
61
57
162
58
27
86
10
73
113
46
81
42
47
62
147
97
34
123
158
112
127
144
21
64
142
150
13
134
91
45
155
165
164
5
128
78
80
120
84
114
52
2
79
169
60
40
151
25
71
38
94
43
129
39
23
141
49
138
83
106
77
30
59

> <PUBCHEM_MMFF94_PARTIAL_CHARGES>
36
1 -0.56
10 -0.57
11 -0.68
13 0.14
15 0.28
16 0.06
17 0.56
18 0.28
2 -0.56
20 -0.28
21 0.28
22 0.28
23 0.28
26 0.56
27 0.28
28 0.28
29 0.49
3 -0.56
30 0.28
31 -0.14
32 0.28
33 0.14
34 0.28
4 -0.56
5 -0.68
6 -0.68
60 0.15
7 -0.68
70 0.4
74 0.4
75 0.4
76 0.4
77 0.4
78 0.4
8 -0.68
9 -0.68

> <PUBCHEM_EFFECTIVE_ROTOR_COUNT>
11

> <PUBCHEM_PHARMACOPHORE_FEATURES>
21
1 1 acceptor
1 10 acceptor
1 11 acceptor
1 11 donor
1 2 acceptor
1 3 acceptor
1 4 acceptor
1 5 acceptor
1 5 donor
1 6 acceptor
1 6 donor
1 7 acceptor
1 7 donor
1 8 acceptor
1 8 donor
1 9 acceptor
1 9 donor
3 12 24 25 hydrophobe
6 12 13 16 20 29 31 rings
6 3 15 17 18 21 23 rings
6 4 26 27 28 30 32 rings

> <PUBCHEM_HEAVY_ATOM_COUNT>
36

> <PUBCHEM_ATOM_DEF_STEREO_COUNT>
12

> <PUBCHEM_ATOM_UDEF_STEREO_COUNT>
0

> <PUBCHEM_BOND_DEF_STEREO_COUNT>
0

> <PUBCHEM_BOND_UDEF_STEREO_COUNT>
0

> <PUBCHEM_ISOTOPIC_ATOM_COUNT>
0

> <PUBCHEM_COMPONENT_COUNT>
1

> <PUBCHEM_CACTVS_TAUTO_COUNT>
8

> <PUBCHEM_CONFORMER_ID>
032E227200000001

> <PUBCHEM_MMFF94_ENERGY>
103.3172

> <PUBCHEM_FEATURE_SELFOVERLAP>
106.7

> <PUBCHEM_SHAPE_FINGERPRINT>
10074138 170 18123178013988052009
10319926 262 18125998270557249194
11456790 92 18188227476589428283
11552529 35 18263924350313256198
12422481 6 17704074022711698732
12788726 201 18335141964211205986
13583140 156 17915164733797586578
13782708 43 17488478407653203374
14068700 675 18337665416843763015
14394314 77 18337681832482925721
14705955 166 17488475074093280632
14844126 61 18336838480967732705
14950920 106 18117546328895331290
15815584 197 17617400792636700765
17627616 140 17618504723632674638
19304152 47 18127661947782665936
19315092 285 17241030043151690120
21033648 29 17418089871991269152
23559900 14 18266738176519826187
3882209 13 18129648833913105143
392239 28 18410574019996772210
463206 1 18189625001958105907
469060 322 18411989044227512728
6004065 56 18267575978895971599
613672 6 18341620347363723271
653340 110 18267583511703833346

> <PUBCHEM_SHAPE_MULTIPOLES>
676.3
13.73
6.09
2
8.16
7.48
0.14
-10.56
3.4
-5.31
0.44
1.8
-0.65
-1.89

> <PUBCHEM_SHAPE_SELFOVERLAP>
1387.561

> <PUBCHEM_SHAPE_VOLUME>
384.5

> <PUBCHEM_COORDINATE_TYPE>
2
5
10

$$$$
