129845667
  -OEChem-09062006393D

 33 33  0     0  0  0  0  0  0999 V2000
   -1.0378    1.4962    0.8855 O   0  0  0  0  0  0  0  0  0  0  0  0
   -3.6291    0.9778    0.3647 O   0  0  0  0  0  0  0  0  0  0  0  0
    1.5901    1.0395   -0.1704 C   0  0  0  0  0  0  0  0  0  0  0  0
    2.8903    0.4848   -0.8336 C   0  0  0  0  0  0  0  0  0  0  0  0
    0.5646   -0.0909    0.0969 C   0  0  0  0  0  0  0  0  0  0  0  0
    1.0575    2.1396   -1.1193 C   0  0  0  0  0  0  0  0  0  0  0  0
    1.9540    1.6964    1.1812 C   0  0  0  0  0  0  0  0  0  0  0  0
    0.9702   -1.3775    0.2416 C   0  0  0  0  0  0  0  0  0  0  0  0
    3.2900   -0.8688   -0.3410 C   0  0  0  0  0  0  0  0  0  0  0  0
    2.3852   -1.7158    0.1614 C   0  0  0  0  0  0  0  0  0  0  0  0
   -0.8238    0.3098    0.2227 C   0  0  0  0  0  0  0  0  0  0  0  0
    0.0993   -2.5716    0.5389 C   0  0  0  0  0  0  0  0  0  0  0  0
   -1.8128   -0.4386   -0.2759 C   0  0  0  0  0  0  0  0  0  0  0  0
   -3.2538   -0.0632   -0.1684 C   0  0  0  0  0  0  0  0  0  0  0  0
   -4.2438   -1.0177   -0.7843 C   0  0  0  0  0  0  0  0  0  0  0  0
    3.7209    1.1822   -0.6662 H   0  0  0  0  0  0  0  0  0  0  0  0
    2.7662    0.4118   -1.9226 H   0  0  0  0  0  0  0  0  0  0  0  0
    2.7451    2.4443    1.0479 H   0  0  0  0  0  0  0  0  0  0  0  0
    0.6469    1.7048   -2.0381 H   0  0  0  0  0  0  0  0  0  0  0  0
    1.1128    2.2173    1.6470 H   0  0  0  0  0  0  0  0  0  0  0  0
    0.2837    2.7659   -0.6663 H   0  0  0  0  0  0  0  0  0  0  0  0
    1.8660    2.8208   -1.4124 H   0  0  0  0  0  0  0  0  0  0  0  0
    2.3243    0.9585    1.9023 H   0  0  0  0  0  0  0  0  0  0  0  0
    4.3304   -1.1672   -0.4198 H   0  0  0  0  0  0  0  0  0  0  0  0
    2.7100   -2.6953    0.4984 H   0  0  0  0  0  0  0  0  0  0  0  0
    0.6306   -3.3034    1.1603 H   0  0  0  0  0  0  0  0  0  0  0  0
   -0.1893   -3.0806   -0.3866 H   0  0  0  0  0  0  0  0  0  0  0  0
   -0.7931   -2.3213    1.1189 H   0  0  0  0  0  0  0  0  0  0  0  0
   -1.6283   -1.3347   -0.8580 H   0  0  0  0  0  0  0  0  0  0  0  0
   -1.9890    1.6835    0.9221 H   0  0  0  0  0  0  0  0  0  0  0  0
   -3.8711   -2.0450   -0.7469 H   0  0  0  0  0  0  0  0  0  0  0  0
   -4.4298   -0.7292   -1.8217 H   0  0  0  0  0  0  0  0  0  0  0  0
   -5.1788   -0.9823   -0.2176 H   0  0  0  0  0  0  0  0  0  0  0  0
  1 11  1  0  0  0  0
  1 30  1  0  0  0  0
  2 14  2  0  0  0  0
  3  4  1  0  0  0  0
  3  5  1  0  0  0  0
  3  6  1  0  0  0  0
  3  7  1  0  0  0  0
  4  9  1  0  0  0  0
  4 16  1  0  0  0  0
  4 17  1  0  0  0  0
  5  8  2  0  0  0  0
  5 11  1  0  0  0  0
  6 19  1  0  0  0  0
  6 21  1  0  0  0  0
  6 22  1  0  0  0  0
  7 18  1  0  0  0  0
  7 20  1  0  0  0  0
  7 23  1  0  0  0  0
  8 10  1  0  0  0  0
  8 12  1  0  0  0  0
  9 10  2  0  0  0  0
  9 24  1  0  0  0  0
 10 25  1  0  0  0  0
 11 13  2  0  0  0  0
 12 26  1  0  0  0  0
 12 27  1  0  0  0  0
 12 28  1  0  0  0  0
 13 14  1  0  0  0  0
 13 29  1  0  0  0  0
 14 15  1  0  0  0  0
 15 31  1  0  0  0  0
 15 32  1  0  0  0  0
 15 33  1  0  0  0  0
M  END
> <PUBCHEM_COMPOUND_CID>
129845667

> <PUBCHEM_CONFORMER_RMSD>
0.6

> <PUBCHEM_CONFORMER_DIVERSEORDER>
4
2
6
1
7
5
3

> <PUBCHEM_MMFF94_PARTIAL_CHARGES>
17
1 -0.53
10 -0.15
11 0.08
12 0.14
13 -0.14
14 0.49
15 0.06
2 -0.57
24 0.15
25 0.15
29 0.15
3 0.14
30 0.45
4 0.14
5 -0.14
8 -0.14
9 -0.29

> <PUBCHEM_EFFECTIVE_ROTOR_COUNT>
2.4

> <PUBCHEM_PHARMACOPHORE_FEATURES>
4
1 1 donor
1 2 acceptor
3 3 6 7 hydrophobe
6 3 4 5 8 9 10 rings

> <PUBCHEM_HEAVY_ATOM_COUNT>
15

> <PUBCHEM_ATOM_DEF_STEREO_COUNT>
0

> <PUBCHEM_ATOM_UDEF_STEREO_COUNT>
0

> <PUBCHEM_BOND_DEF_STEREO_COUNT>
1

> <PUBCHEM_BOND_UDEF_STEREO_COUNT>
0

> <PUBCHEM_ISOTOPIC_ATOM_COUNT>
0

> <PUBCHEM_COMPONENT_COUNT>
1

> <PUBCHEM_CACTVS_TAUTO_COUNT>
34

> <PUBCHEM_CONFORMER_ID>
07BD49A300000004

> <PUBCHEM_MMFF94_ENERGY>
46.4133

> <PUBCHEM_FEATURE_SELFOVERLAP>
20.297

> <PUBCHEM_SHAPE_FINGERPRINT>
11471102 20 18335136475458974111
11680986 33 18337676437766962842
11806522 49 18342453738216247018
13380535 76 18266455589167723842
13380536 305 18261680362823354236
14251717 144 18335135388753373791
14911166 2 18336557074884584998
14993402 34 18261401044031067558
15536298 74 18202278125914117952
15757776 16 18334854974681044862
15775835 57 18412552010875415117
16945 1 18337409213512462304
18186145 218 18408038520355060847
19422 9 18201721764878521583
20511035 2 18197219367805200638
20645477 70 18341886390696648847
21634736 98 18269832180570730183
21730867 7 18114178653111442487
221490 88 18262807396491345315
2255824 54 18335422382662631574
2334 1 18122064466217105547
23402539 116 18340763741869046014
23402655 69 18337673023141193141
25 1 18187088325510951971
2748010 2 17978523249349770746
2871803 45 18338225064268222135
3060560 45 18260822722073423263
528886 8 18260553324797572816
53812653 166 18411417349715239112
63268167 104 18410017593824107000
7364860 26 18202278134651875592
77492 1 18201164264943043809
81228 2 16534525351272624675
84936 182 18200035186629410632

> <PUBCHEM_SHAPE_MULTIPOLES>
296.95
5.89
2.3
0.97
5.99
0.42
0.01
0.55
-1.19
-1.03
0.22
-0.21
-0.34
-0.32

> <PUBCHEM_SHAPE_SELFOVERLAP>
607.313

> <PUBCHEM_SHAPE_VOLUME>
170.9

> <PUBCHEM_COORDINATE_TYPE>
2
5
10

$$$$
