9890209
  -OEChem-11202005243D

 79 83  0     1  0  0  0  0  0999 V2000
   -6.8445    0.8550    0.7279 O   0  0  0  0  0  0  0  0  0  0  0  0
    4.0305   -3.1140    0.7022 O   0  0  0  0  0  0  0  0  0  0  0  0
    2.8293   -1.7664    2.0940 O   0  0  0  0  0  0  0  0  0  0  0  0
   -0.6496   -0.7931   -0.2713 C   0  0  2  0  0  0  0  0  0  0  0  0
   -1.3743    0.4221    0.4192 C   0  0  1  0  0  0  0  0  0  0  0  0
    0.8501   -0.3067   -0.7282 C   0  0  1  0  0  0  0  0  0  0  0  0
   -2.9532    0.3429    0.6261 C   0  0  2  0  0  0  0  0  0  0  0  0
   -3.6173   -0.1749   -0.6972 C   0  0  1  0  0  0  0  0  0  0  0  0
   -1.4869   -1.2748   -1.4862 C   0  0  0  0  0  0  0  0  0  0  0  0
    1.5742    0.3784    0.4547 C   0  0  0  0  0  0  0  0  0  0  0  0
    3.1110    0.4763    0.4752 C   0  0  1  0  0  0  0  0  0  0  0  0
   -2.9677   -1.4846   -1.1791 C   0  0  0  0  0  0  0  0  0  0  0  0
    3.7540   -0.8638    0.0321 C   0  0  1  0  0  0  0  0  0  0  0  0
    1.6671   -1.5217   -1.2684 C   0  0  0  0  0  0  0  0  0  0  0  0
   -0.5975    0.8588    1.6781 C   0  0  0  0  0  0  0  0  0  0  0  0
   -5.1870   -0.2300   -0.6769 C   0  0  0  0  0  0  0  0  0  0  0  0
   -3.4734    1.7966    0.9068 C   0  0  0  0  0  0  0  0  0  0  0  0
    3.1847   -1.3151   -1.3250 C   0  0  0  0  0  0  0  0  0  0  0  0
   -0.5300   -1.9949    0.7166 C   0  0  0  0  0  0  0  0  0  0  0  0
    0.8907    0.8685    1.5089 C   0  0  0  0  0  0  0  0  0  0  0  0
    3.6904    1.7204   -0.2853 C   0  0  2  0  0  0  0  0  0  0  0  0
    0.7846    0.7358   -1.8835 C   0  0  0  0  0  0  0  0  0  0  0  0
   -3.3741   -0.5101    1.8488 C   0  0  0  0  0  0  0  0  0  0  0  0
    5.2915   -0.7723   -0.0098 C   0  0  0  0  0  0  0  0  0  0  0  0
   -4.8598    2.1214    0.3588 C   0  0  0  0  0  0  0  0  0  0  0  0
    5.2418    1.7406   -0.2134 C   0  0  1  0  0  0  0  0  0  0  0  0
   -5.7268    0.8968    0.2128 C   0  0  0  0  0  0  0  0  0  0  0  0
    5.8151    0.4336   -0.7721 C   0  0  0  0  0  0  0  0  0  0  0  0
   -5.7704   -1.5761   -0.2057 C   0  0  0  0  0  0  0  0  0  0  0  0
   -5.7320    0.0358   -2.0972 C   0  0  0  0  0  0  0  0  0  0  0  0
    3.4707   -1.9349    1.0676 C   0  0  0  0  0  0  0  0  0  0  0  0
    3.0926    3.0342    0.2440 C   0  0  0  0  0  0  0  0  0  0  0  0
    5.8660    2.9163   -0.9744 C   0  0  0  0  0  0  0  0  0  0  0  0
   -1.2629    1.2493   -0.2944 H   0  0  0  0  0  0  0  0  0  0  0  0
   -3.3554    0.5796   -1.4575 H   0  0  0  0  0  0  0  0  0  0  0  0
   -1.0720   -2.2060   -1.8904 H   0  0  0  0  0  0  0  0  0  0  0  0
   -1.4496   -0.5479   -2.3011 H   0  0  0  0  0  0  0  0  0  0  0  0
    3.4132    0.6299    1.5243 H   0  0  0  0  0  0  0  0  0  0  0  0
   -3.4530   -1.8221   -2.1025 H   0  0  0  0  0  0  0  0  0  0  0  0
   -3.0938   -2.2919   -0.4515 H   0  0  0  0  0  0  0  0  0  0  0  0
    1.3149   -1.7902   -2.2727 H   0  0  0  0  0  0  0  0  0  0  0  0
    1.5044   -2.4138   -0.6603 H   0  0  0  0  0  0  0  0  0  0  0  0
   -0.8073    0.1996    2.5252 H   0  0  0  0  0  0  0  0  0  0  0  0
   -0.9132    1.8659    1.9733 H   0  0  0  0  0  0  0  0  0  0  0  0
   -2.7896    2.5439    0.4839 H   0  0  0  0  0  0  0  0  0  0  0  0
   -3.4635    1.9891    1.9882 H   0  0  0  0  0  0  0  0  0  0  0  0
    3.6473   -2.2553   -1.6522 H   0  0  0  0  0  0  0  0  0  0  0  0
    3.4229   -0.5857   -2.1067 H   0  0  0  0  0  0  0  0  0  0  0  0
   -0.2755   -2.9242    0.1964 H   0  0  0  0  0  0  0  0  0  0  0  0
    0.2243   -1.8351    1.4903 H   0  0  0  0  0  0  0  0  0  0  0  0
   -1.4611   -2.2104    1.2335 H   0  0  0  0  0  0  0  0  0  0  0  0
    1.4387    1.3187    2.3341 H   0  0  0  0  0  0  0  0  0  0  0  0
    3.4292    1.6567   -1.3444 H   0  0  0  0  0  0  0  0  0  0  0  0
    1.7741    0.9944   -2.2627 H   0  0  0  0  0  0  0  0  0  0  0  0
    0.2561    0.3558   -2.7609 H   0  0  0  0  0  0  0  0  0  0  0  0
    0.3129    1.6751   -1.5811 H   0  0  0  0  0  0  0  0  0  0  0  0
   -3.2978   -1.5823    1.6705 H   0  0  0  0  0  0  0  0  0  0  0  0
   -2.7931   -0.2752    2.7436 H   0  0  0  0  0  0  0  0  0  0  0  0
   -4.4144   -0.3217    2.1341 H   0  0  0  0  0  0  0  0  0  0  0  0
    5.7260   -1.6750   -0.4593 H   0  0  0  0  0  0  0  0  0  0  0  0
    5.6888   -0.7282    1.0145 H   0  0  0  0  0  0  0  0  0  0  0  0
   -4.7800    2.5907   -0.6286 H   0  0  0  0  0  0  0  0  0  0  0  0
   -5.3590    2.8448    1.0130 H   0  0  0  0  0  0  0  0  0  0  0  0
    5.5445    1.8298    0.8389 H   0  0  0  0  0  0  0  0  0  0  0  0
    6.9097    0.4457   -0.6989 H   0  0  0  0  0  0  0  0  0  0  0  0
    5.5765    0.3385   -1.8383 H   0  0  0  0  0  0  0  0  0  0  0  0
   -5.4787   -2.4002   -0.8649 H   0  0  0  0  0  0  0  0  0  0  0  0
   -5.4654   -1.8324    0.8110 H   0  0  0  0  0  0  0  0  0  0  0  0
   -6.8671   -1.5520   -0.2029 H   0  0  0  0  0  0  0  0  0  0  0  0
   -5.3921    1.0033   -2.4841 H   0  0  0  0  0  0  0  0  0  0  0  0
   -5.4138   -0.7388   -2.8026 H   0  0  0  0  0  0  0  0  0  0  0  0
   -6.8283    0.0609   -2.1021 H   0  0  0  0  0  0  0  0  0  0  0  0
    2.0038    3.0520    0.1416 H   0  0  0  0  0  0  0  0  0  0  0  0
    3.3433    3.1849    1.2991 H   0  0  0  0  0  0  0  0  0  0  0  0
    3.4561    3.8983   -0.3195 H   0  0  0  0  0  0  0  0  0  0  0  0
    5.6397    3.8716   -0.4918 H   0  0  0  0  0  0  0  0  0  0  0  0
    6.9577    2.8278   -1.0007 H   0  0  0  0  0  0  0  0  0  0  0  0
    5.5057    2.9569   -2.0078 H   0  0  0  0  0  0  0  0  0  0  0  0
    3.8578   -3.8206    1.3603 H   0  0  0  0  0  0  0  0  0  0  0  0
  1 27  2  0  0  0  0
  2 31  1  0  0  0  0
  2 79  1  0  0  0  0
  3 31  2  0  0  0  0
  4  5  1  0  0  0  0
  4  6  1  0  0  0  0
  4  9  1  0  0  0  0
  4 19  1  0  0  0  0
  5  7  1  0  0  0  0
  5 15  1  0  0  0  0
  5 34  1  0  0  0  0
  6 10  1  0  0  0  0
  6 14  1  0  0  0  0
  6 22  1  0  0  0  0
  7  8  1  0  0  0  0
  7 17  1  0  0  0  0
  7 23  1  0  0  0  0
  8 12  1  0  0  0  0
  8 16  1  0  0  0  0
  8 35  1  0  0  0  0
  9 12  1  0  0  0  0
  9 36  1  0  0  0  0
  9 37  1  0  0  0  0
 10 11  1  0  0  0  0
 10 20  2  0  0  0  0
 11 13  1  0  0  0  0
 11 21  1  0  0  0  0
 11 38  1  0  0  0  0
 12 39  1  0  0  0  0
 12 40  1  0  0  0  0
 13 18  1  0  0  0  0
 13 24  1  0  0  0  0
 13 31  1  0  0  0  0
 14 18  1  0  0  0  0
 14 41  1  0  0  0  0
 14 42  1  0  0  0  0
 15 20  1  0  0  0  0
 15 43  1  0  0  0  0
 15 44  1  0  0  0  0
 16 27  1  0  0  0  0
 16 29  1  0  0  0  0
 16 30  1  0  0  0  0
 17 25  1  0  0  0  0
 17 45  1  0  0  0  0
 17 46  1  0  0  0  0
 18 47  1  0  0  0  0
 18 48  1  0  0  0  0
 19 49  1  0  0  0  0
 19 50  1  0  0  0  0
 19 51  1  0  0  0  0
 20 52  1  0  0  0  0
 21 26  1  0  0  0  0
 21 32  1  0  0  0  0
 21 53  1  0  0  0  0
 22 54  1  0  0  0  0
 22 55  1  0  0  0  0
 22 56  1  0  0  0  0
 23 57  1  0  0  0  0
 23 58  1  0  0  0  0
 23 59  1  0  0  0  0
 24 28  1  0  0  0  0
 24 60  1  0  0  0  0
 24 61  1  0  0  0  0
 25 27  1  0  0  0  0
 25 62  1  0  0  0  0
 25 63  1  0  0  0  0
 26 28  1  0  0  0  0
 26 33  1  0  0  0  0
 26 64  1  0  0  0  0
 28 65  1  0  0  0  0
 28 66  1  0  0  0  0
 29 67  1  0  0  0  0
 29 68  1  0  0  0  0
 29 69  1  0  0  0  0
 30 70  1  0  0  0  0
 30 71  1  0  0  0  0
 30 72  1  0  0  0  0
 32 73  1  0  0  0  0
 32 74  1  0  0  0  0
 32 75  1  0  0  0  0
 33 76  1  0  0  0  0
 33 77  1  0  0  0  0
 33 78  1  0  0  0  0
M  END
> <PUBCHEM_COMPOUND_CID>
9890209

> <PUBCHEM_CONFORMER_RMSD>
0.8

> <PUBCHEM_CONFORMER_DIVERSEORDER>
1

> <PUBCHEM_MMFF94_PARTIAL_CHARGES>
15
1 -0.57
10 -0.28
11 0.14
13 0.06
15 0.14
16 0.06
2 -0.65
20 -0.29
25 0.06
27 0.45
3 -0.57
31 0.66
52 0.15
6 0.14
79 0.5

> <PUBCHEM_EFFECTIVE_ROTOR_COUNT>
3.4

> <PUBCHEM_PHARMACOPHORE_FEATURES>
10
1 1 acceptor
1 2 acceptor
1 3 acceptor
3 16 29 30 hydrophobe
3 2 3 31 anion
6 11 13 21 24 26 28 rings
6 4 5 6 10 15 20 rings
6 4 5 7 8 9 12 rings
6 6 10 11 13 14 18 rings
6 7 8 16 17 25 27 rings

> <PUBCHEM_HEAVY_ATOM_COUNT>
33

> <PUBCHEM_ATOM_DEF_STEREO_COUNT>
9

> <PUBCHEM_ATOM_UDEF_STEREO_COUNT>
0

> <PUBCHEM_BOND_DEF_STEREO_COUNT>
0

> <PUBCHEM_BOND_UDEF_STEREO_COUNT>
0

> <PUBCHEM_ISOTOPIC_ATOM_COUNT>
0

> <PUBCHEM_COMPONENT_COUNT>
1

> <PUBCHEM_CACTVS_TAUTO_COUNT>
2

> <PUBCHEM_CONFORMER_ID>
0096E9A100000001

> <PUBCHEM_MMFF94_ENERGY>
139.7455

> <PUBCHEM_FEATURE_SELFOVERLAP>
50.886

> <PUBCHEM_SHAPE_FINGERPRINT>
10076449 9 12535360008850672376
10554248 39 18199175218602109253
10595046 47 18411138047812898377
10670039 82 16702037352434713072
10906281 52 17632031796494140591
11488393 25 16083040785787802707
11578080 2 17895770615519226122
12107183 9 17907579120897818058
12166972 35 17918273147220701280
12236239 1 18412825789323589255
12596602 18 18335422387163528587
12633257 1 18114729504695950642
12788726 201 17917716759897908032
13224815 77 18202010940367603471
13533116 47 18041559135369682202
13583140 156 18334304192316979217
13782708 43 16805874096469109506
13785724 45 17837776621357609654
14294032 229 16987458429692168881
15183329 4 18060416911507032701
15788980 27 18201719531500743899
17349148 13 17203322308518689835
18608769 82 18200315567069728191
18681886 176 17703787042325379648
20511986 3 18271795839692119172
20715895 44 17841154351274511081
21033648 144 18040433300424918837
21033648 29 16370722604901412421
22149856 69 13984941750421904229
22393880 68 17559954484087354756
23522609 53 17987540194001994841
23559900 14 17346595283282427400
23569914 2 17246062562942783813
23569943 247 17169533126217582138
3004659 81 18130786737599451024
350125 39 18131353016253065289
3633792 109 18114731690807813759
4073 2 18187372076862528019
4098825 35 18408604756343838761
4340502 62 18040716982973037306
474 4 18189336930444008036
70251023 43 17971754377124224698

> <PUBCHEM_SHAPE_MULTIPOLES>
661.52
14.91
2.64
1.67
7.13
0.45
-0.01
4.36
2.45
-2.84
-0.21
0.46
-0.31
-1.77

> <PUBCHEM_SHAPE_SELFOVERLAP>
1411.297

> <PUBCHEM_SHAPE_VOLUME>
363.3

> <PUBCHEM_COORDINATE_TYPE>
2
5
10

$$$$
