12305178
  -OEChem-11202005283D

 81 85  0     1  0  0  0  0  0999 V2000
   -6.3449    1.0527    0.3802 O   0  0  0  0  0  0  0  0  0  0  0  0
    1.3561    0.8507   -0.0783 C   0  0  2  0  0  0  0  0  0  0  0  0
    0.8072   -0.5292    0.5133 C   0  0  1  0  0  0  0  0  0  0  0  0
    2.8876    0.9096    0.1612 C   0  0  1  0  0  0  0  0  0  0  0  0
    3.7240   -0.2692   -0.4075 C   0  0  1  0  0  0  0  0  0  0  0  0
   -0.7291   -0.6349    0.1478 C   0  0  2  0  0  0  0  0  0  0  0  0
    1.6339   -1.7214   -0.0724 C   0  0  0  0  0  0  0  0  0  0  0  0
    5.1065    0.1449    0.1749 C   0  0  2  0  0  0  0  0  0  0  0  0
    3.1619   -1.5930    0.1382 C   0  0  0  0  0  0  0  0  0  0  0  0
    3.7045    2.1490   -0.2060 C   0  0  0  0  0  0  0  0  0  0  0  0
    0.6393    2.0022    0.6769 C   0  0  0  0  0  0  0  0  0  0  0  0
   -1.5050    0.6515    0.4776 C   0  0  0  0  0  0  0  0  0  0  0  0
   -3.0588    0.5752    0.4524 C   0  0  2  0  0  0  0  0  0  0  0  0
    5.1662    1.6716   -0.0801 C   0  0  0  0  0  0  0  0  0  0  0  0
   -3.5188   -0.7405   -0.2645 C   0  0  1  0  0  0  0  0  0  0  0  0
   -1.4323   -1.8357    0.8006 C   0  0  0  0  0  0  0  0  0  0  0  0
    1.0146    1.0341   -1.5882 C   0  0  0  0  0  0  0  0  0  0  0  0
    0.9576   -0.6181    2.0721 C   0  0  0  0  0  0  0  0  0  0  0  0
   -2.8894   -2.0042    0.3628 C   0  0  0  0  0  0  0  0  0  0  0  0
   -0.8536    1.8050    0.7555 C   0  0  0  0  0  0  0  0  0  0  0  0
    3.8159   -0.3644   -1.9495 C   0  0  0  0  0  0  0  0  0  0  0  0
   -5.0761   -0.8854   -0.5398 C   0  0  0  0  0  0  0  0  0  0  0  0
    6.3356   -0.5878   -0.3444 C   0  0  0  0  0  0  0  0  0  0  0  0
   -3.6282    1.8153   -0.3165 C   0  0  0  0  0  0  0  0  0  0  0  0
   -5.7472    0.5008   -0.7912 C   0  0  2  0  0  0  0  0  0  0  0  0
   -3.5257    0.6209    1.9270 C   0  0  0  0  0  0  0  0  0  0  0  0
   -4.7484    1.5196   -1.3166 C   0  0  0  0  0  0  0  0  0  0  0  0
   -5.2372   -1.7149   -1.8469 C   0  0  0  0  0  0  0  0  0  0  0  0
   -5.8354   -1.6684    0.5537 C   0  0  0  0  0  0  0  0  0  0  0  0
    7.6064   -0.0440    0.3085 C   0  0  0  0  0  0  0  0  0  0  0  0
    6.2128   -2.0920   -0.1007 C   0  0  0  0  0  0  0  0  0  0  0  0
    2.9967    0.8726    1.2551 H   0  0  0  0  0  0  0  0  0  0  0  0
   -0.7985   -0.7833   -0.9385 H   0  0  0  0  0  0  0  0  0  0  0  0
    1.4187   -1.8398   -1.1397 H   0  0  0  0  0  0  0  0  0  0  0  0
    1.3172   -2.6634    0.3917 H   0  0  0  0  0  0  0  0  0  0  0  0
    5.0734    0.0034    1.2668 H   0  0  0  0  0  0  0  0  0  0  0  0
    3.3885   -1.6934    1.2059 H   0  0  0  0  0  0  0  0  0  0  0  0
    3.6115   -2.4592   -0.3525 H   0  0  0  0  0  0  0  0  0  0  0  0
    3.5032    2.9849    0.4721 H   0  0  0  0  0  0  0  0  0  0  0  0
    3.5136    2.4988   -1.2242 H   0  0  0  0  0  0  0  0  0  0  0  0
    0.8375    2.9544    0.1680 H   0  0  0  0  0  0  0  0  0  0  0  0
    1.0280    2.1162    1.6959 H   0  0  0  0  0  0  0  0  0  0  0  0
    5.7099    1.9157   -0.9999 H   0  0  0  0  0  0  0  0  0  0  0  0
    5.6692    2.1831    0.7481 H   0  0  0  0  0  0  0  0  0  0  0  0
   -3.0625   -0.6735   -1.2664 H   0  0  0  0  0  0  0  0  0  0  0  0
   -1.4264   -1.7307    1.8921 H   0  0  0  0  0  0  0  0  0  0  0  0
   -0.8997   -2.7678    0.5835 H   0  0  0  0  0  0  0  0  0  0  0  0
    1.0716    0.1044   -2.1533 H   0  0  0  0  0  0  0  0  0  0  0  0
   -0.0047    1.4024   -1.7484 H   0  0  0  0  0  0  0  0  0  0  0  0
    1.6668    1.7677   -2.0693 H   0  0  0  0  0  0  0  0  0  0  0  0
    0.2808    0.0587    2.6019 H   0  0  0  0  0  0  0  0  0  0  0  0
    0.7366   -1.6305    2.4299 H   0  0  0  0  0  0  0  0  0  0  0  0
    1.9671   -0.3984    2.4247 H   0  0  0  0  0  0  0  0  0  0  0  0
   -2.9419   -2.8249   -0.3627 H   0  0  0  0  0  0  0  0  0  0  0  0
   -3.4518   -2.3390    1.2405 H   0  0  0  0  0  0  0  0  0  0  0  0
   -1.4198    2.6934    1.0239 H   0  0  0  0  0  0  0  0  0  0  0  0
    4.5465   -1.1143   -2.2670 H   0  0  0  0  0  0  0  0  0  0  0  0
    2.8842   -0.6867   -2.4118 H   0  0  0  0  0  0  0  0  0  0  0  0
    4.1031    0.5827   -2.4153 H   0  0  0  0  0  0  0  0  0  0  0  0
    6.4562   -0.4247   -1.4221 H   0  0  0  0  0  0  0  0  0  0  0  0
   -2.8435    2.3218   -0.8934 H   0  0  0  0  0  0  0  0  0  0  0  0
   -3.9879    2.5636    0.4026 H   0  0  0  0  0  0  0  0  0  0  0  0
   -6.5622    0.3901   -1.5168 H   0  0  0  0  0  0  0  0  0  0  0  0
   -4.6118    0.6325    2.0205 H   0  0  0  0  0  0  0  0  0  0  0  0
   -3.1580   -0.2326    2.5051 H   0  0  0  0  0  0  0  0  0  0  0  0
   -3.1661    1.5251    2.4333 H   0  0  0  0  0  0  0  0  0  0  0  0
   -5.2591    2.4637   -1.5447 H   0  0  0  0  0  0  0  0  0  0  0  0
   -4.3154    1.1667   -2.2604 H   0  0  0  0  0  0  0  0  0  0  0  0
   -4.7849   -2.7079   -1.7540 H   0  0  0  0  0  0  0  0  0  0  0  0
   -6.2956   -1.8631   -2.0920 H   0  0  0  0  0  0  0  0  0  0  0  0
   -4.7698   -1.2144   -2.7020 H   0  0  0  0  0  0  0  0  0  0  0  0
   -6.9152   -1.6508    0.3629 H   0  0  0  0  0  0  0  0  0  0  0  0
   -5.5422   -2.7235    0.5802 H   0  0  0  0  0  0  0  0  0  0  0  0
   -5.6722   -1.2516    1.5504 H   0  0  0  0  0  0  0  0  0  0  0  0
    7.5665   -0.1423    1.3989 H   0  0  0  0  0  0  0  0  0  0  0  0
    8.4878   -0.5913   -0.0437 H   0  0  0  0  0  0  0  0  0  0  0  0
    7.7689    1.0109    0.0668 H   0  0  0  0  0  0  0  0  0  0  0  0
    5.8398   -2.3194    0.9029 H   0  0  0  0  0  0  0  0  0  0  0  0
    7.1935   -2.5739   -0.1939 H   0  0  0  0  0  0  0  0  0  0  0  0
    5.5838   -2.5766   -0.8491 H   0  0  0  0  0  0  0  0  0  0  0  0
   -6.7718    1.8897    0.1298 H   0  0  0  0  0  0  0  0  0  0  0  0
  1 25  1  0  0  0  0
  1 81  1  0  0  0  0
  2  3  1  0  0  0  0
  2  4  1  0  0  0  0
  2 11  1  0  0  0  0
  2 17  1  0  0  0  0
  3  6  1  0  0  0  0
  3  7  1  0  0  0  0
  3 18  1  0  0  0  0
  4  5  1  0  0  0  0
  4 10  1  0  0  0  0
  4 32  1  0  0  0  0
  5  8  1  0  0  0  0
  5  9  1  0  0  0  0
  5 21  1  0  0  0  0
  6 12  1  0  0  0  0
  6 16  1  0  0  0  0
  6 33  1  0  0  0  0
  7  9  1  0  0  0  0
  7 34  1  0  0  0  0
  7 35  1  0  0  0  0
  8 14  1  0  0  0  0
  8 23  1  0  0  0  0
  8 36  1  0  0  0  0
  9 37  1  0  0  0  0
  9 38  1  0  0  0  0
 10 14  1  0  0  0  0
 10 39  1  0  0  0  0
 10 40  1  0  0  0  0
 11 20  1  0  0  0  0
 11 41  1  0  0  0  0
 11 42  1  0  0  0  0
 12 13  1  0  0  0  0
 12 20  2  0  0  0  0
 13 15  1  0  0  0  0
 13 24  1  0  0  0  0
 13 26  1  0  0  0  0
 14 43  1  0  0  0  0
 14 44  1  0  0  0  0
 15 19  1  0  0  0  0
 15 22  1  0  0  0  0
 15 45  1  0  0  0  0
 16 19  1  0  0  0  0
 16 46  1  0  0  0  0
 16 47  1  0  0  0  0
 17 48  1  0  0  0  0
 17 49  1  0  0  0  0
 17 50  1  0  0  0  0
 18 51  1  0  0  0  0
 18 52  1  0  0  0  0
 18 53  1  0  0  0  0
 19 54  1  0  0  0  0
 19 55  1  0  0  0  0
 20 56  1  0  0  0  0
 21 57  1  0  0  0  0
 21 58  1  0  0  0  0
 21 59  1  0  0  0  0
 22 25  1  0  0  0  0
 22 28  1  0  0  0  0
 22 29  1  0  0  0  0
 23 30  1  0  0  0  0
 23 31  1  0  0  0  0
 23 60  1  0  0  0  0
 24 27  1  0  0  0  0
 24 61  1  0  0  0  0
 24 62  1  0  0  0  0
 25 27  1  0  0  0  0
 25 63  1  0  0  0  0
 26 64  1  0  0  0  0
 26 65  1  0  0  0  0
 26 66  1  0  0  0  0
 27 67  1  0  0  0  0
 27 68  1  0  0  0  0
 28 69  1  0  0  0  0
 28 70  1  0  0  0  0
 28 71  1  0  0  0  0
 29 72  1  0  0  0  0
 29 73  1  0  0  0  0
 29 74  1  0  0  0  0
 30 75  1  0  0  0  0
 30 76  1  0  0  0  0
 30 77  1  0  0  0  0
 31 78  1  0  0  0  0
 31 79  1  0  0  0  0
 31 80  1  0  0  0  0
M  END
> <PUBCHEM_COMPOUND_CID>
12305178

> <PUBCHEM_CONFORMER_RMSD>
0.8

> <PUBCHEM_CONFORMER_DIVERSEORDER>
1

> <PUBCHEM_MMFF94_PARTIAL_CHARGES>
9
1 -0.68
11 0.14
12 -0.28
13 0.14
20 -0.29
25 0.28
56 0.15
6 0.14
81 0.4

> <PUBCHEM_EFFECTIVE_ROTOR_COUNT>
3.4

> <PUBCHEM_PHARMACOPHORE_FEATURES>
9
1 1 acceptor
1 1 donor
3 22 28 29 hydrophobe
3 23 30 31 hydrophobe
5 4 5 8 10 14 rings
6 13 15 22 24 25 27 rings
6 2 3 4 5 7 9 rings
6 2 3 6 11 12 20 rings
6 6 12 13 15 16 19 rings

> <PUBCHEM_HEAVY_ATOM_COUNT>
31

> <PUBCHEM_ATOM_DEF_STEREO_COUNT>
9

> <PUBCHEM_ATOM_UDEF_STEREO_COUNT>
0

> <PUBCHEM_BOND_DEF_STEREO_COUNT>
0

> <PUBCHEM_BOND_UDEF_STEREO_COUNT>
0

> <PUBCHEM_ISOTOPIC_ATOM_COUNT>
0

> <PUBCHEM_COMPONENT_COUNT>
1

> <PUBCHEM_CACTVS_TAUTO_COUNT>
1

> <PUBCHEM_CONFORMER_ID>
00BBC31A00000001

> <PUBCHEM_MMFF94_ENERGY>
154.423

> <PUBCHEM_FEATURE_SELFOVERLAP>
45.776

> <PUBCHEM_SHAPE_FINGERPRINT>
10670039 82 17749100076442179261
11089746 13 18334010597164124348
11135926 11 18341327795671182543
11315181 36 17918275363450082761
11719270 70 18273210881609624542
11796584 16 17703791414296320631
11963148 33 17989479728229195190
12166972 35 18260269676372784084
12236239 1 18410856576819658775
12516196 113 18131631197042516704
12788726 201 18270676442703685257
13224815 77 18411142445906661505
13533116 47 18342175583898063792
13690498 29 18340756131719553015
13782708 43 18408882953569386538
13811026 1 18410006676444540903
14068700 675 17560515213911728497
14790565 3 17908710527755496633
14856354 85 13614515294548727781
15183329 4 18260259746318386795
15196674 1 18410294722093499512
15238133 3 14418117514056751463
15788980 27 18410576188485537228
17349148 13 18411704287410360665
17857418 61 18413671301181029866
18608769 82 18261116326860840571
18681886 176 18341604949926234416
19377110 9 13973968688378748358
19958102 18 18187639215402162279
20028762 73 18201999902977542654
20511986 3 18336532885386115434
20775438 99 16835119182081960887
21033648 29 18187917392002485153
21130935 74 17917433082484474382
21267235 1 18410863178211071970
21279426 13 18408321068878397222
22393880 68 18335409158891090677
23402539 116 18342457032224184461
23522609 53 17914644836591553425
23559900 14 18341043107600122032
23569943 247 17679013812538458618
2838139 119 17894628149644279397
3004659 81 18333447643089835152
3009799 131 18408039602771234756
32027 91 17270337379181792486
335352 9 18409167714159025668
34797466 226 18131359647603364852
350125 39 18409448068070020600
3633792 109 18339074883450326941
4015057 19 18339361975775113553
404807 14 17192931687640924438
4073 2 17968381264254358050
439807 62 18271240642761653783
5104073 3 18343308084884655162
5283173 99 18408599236641164757
57724786 102 15068920697469559374
59755656 215 18187363195381797406
59755656 520 17095242531627551627
6086070 43 18262216868526562124
6669772 16 17557126604858848320
7495541 125 17346595309189595832

> <PUBCHEM_SHAPE_MULTIPOLES>
632.1
16.57
2.28
1.4
6.32
0.02
0.09
2.61
3.05
-0.29
0.01
-0.86
0.06
-0.1

> <PUBCHEM_SHAPE_SELFOVERLAP>
1339.7

> <PUBCHEM_SHAPE_VOLUME>
351.3

> <PUBCHEM_COORDINATE_TYPE>
2
5
10

$$$$
