14562693
  -OEChem-11202005393D

 42 43  0     1  0  0  0  0  0999 V2000
   -1.1708    1.0716    0.0921 O   0  0  0  0  0  0  0  0  0  0  0  0
   -0.5990    0.9872   -2.1567 O   0  0  0  0  0  0  0  0  0  0  0  0
    1.1823    2.7568    0.4604 O   0  0  0  0  0  0  0  0  0  0  0  0
    4.7307   -0.3465    1.0764 O   0  0  0  0  0  0  0  0  0  0  0  0
   -3.3196   -1.7247    0.7332 C   0  0  0  0  0  0  0  0  0  0  0  0
   -2.1870   -2.1282   -0.2192 C   0  0  0  0  0  0  0  0  0  0  0  0
   -3.0634   -0.5108    1.6339 C   0  0  0  0  0  0  0  0  0  0  0  0
   -0.8832   -2.5024    0.4932 C   0  0  0  0  0  0  0  0  0  0  0  0
   -3.3899    0.8616    1.0285 C   0  0  0  0  0  0  0  0  0  0  0  0
    0.2237   -2.9555   -0.4673 C   0  0  0  0  0  0  0  0  0  0  0  0
   -2.5675    1.2817   -0.1951 C   0  0  1  0  0  0  0  0  0  0  0  0
    0.7808   -1.8586   -1.3871 C   0  0  0  0  0  0  0  0  0  0  0  0
    1.5113   -0.7540   -0.6556 C   0  0  0  0  0  0  0  0  0  0  0  0
    0.9758    0.5288   -0.4428 C   0  0  0  0  0  0  0  0  0  0  0  0
   -2.8012    2.7563   -0.5153 C   0  0  0  0  0  0  0  0  0  0  0  0
   -0.3420    0.9046   -0.9690 C   0  0  0  0  0  0  0  0  0  0  0  0
    2.7862   -1.0262   -0.1307 C   0  0  0  0  0  0  0  0  0  0  0  0
    1.6868    1.5050    0.2668 C   0  0  0  0  0  0  0  0  0  0  0  0
    3.4978   -0.0552    0.5777 C   0  0  0  0  0  0  0  0  0  0  0  0
    2.9481    1.2084    0.7766 C   0  0  0  0  0  0  0  0  0  0  0  0
   -4.2345   -1.5606    0.1509 H   0  0  0  0  0  0  0  0  0  0  0  0
   -3.5245   -2.5861    1.3826 H   0  0  0  0  0  0  0  0  0  0  0  0
   -2.0149   -1.3397   -0.9514 H   0  0  0  0  0  0  0  0  0  0  0  0
   -2.5289   -2.9978   -0.7952 H   0  0  0  0  0  0  0  0  0  0  0  0
   -3.7150   -0.6211    2.5117 H   0  0  0  0  0  0  0  0  0  0  0  0
   -2.0451   -0.5125    2.0327 H   0  0  0  0  0  0  0  0  0  0  0  0
   -1.0904   -3.3260    1.1880 H   0  0  0  0  0  0  0  0  0  0  0  0
   -0.5133   -1.6722    1.1008 H   0  0  0  0  0  0  0  0  0  0  0  0
   -4.4574    0.9052    0.7788 H   0  0  0  0  0  0  0  0  0  0  0  0
   -3.2300    1.5986    1.8273 H   0  0  0  0  0  0  0  0  0  0  0  0
   -0.1593   -3.7728   -1.0910 H   0  0  0  0  0  0  0  0  0  0  0  0
    1.0412   -3.3816    0.1279 H   0  0  0  0  0  0  0  0  0  0  0  0
   -2.8723    0.6762   -1.0562 H   0  0  0  0  0  0  0  0  0  0  0  0
   -0.0119   -1.4639   -2.0281 H   0  0  0  0  0  0  0  0  0  0  0  0
    1.4921   -2.3219   -2.0846 H   0  0  0  0  0  0  0  0  0  0  0  0
   -2.4513    3.3948    0.3033 H   0  0  0  0  0  0  0  0  0  0  0  0
   -2.2400    3.0561   -1.4062 H   0  0  0  0  0  0  0  0  0  0  0  0
   -3.8616    2.9599   -0.6930 H   0  0  0  0  0  0  0  0  0  0  0  0
    3.2309   -2.0094   -0.2731 H   0  0  0  0  0  0  0  0  0  0  0  0
    3.5064    1.9623    1.3265 H   0  0  0  0  0  0  0  0  0  0  0  0
    1.8211    3.2850    0.9688 H   0  0  0  0  0  0  0  0  0  0  0  0
    5.0783    0.4364    1.5373 H   0  0  0  0  0  0  0  0  0  0  0  0
  1 11  1  0  0  0  0
  1 16  1  0  0  0  0
  2 16  2  0  0  0  0
  3 18  1  0  0  0  0
  3 41  1  0  0  0  0
  4 19  1  0  0  0  0
  4 42  1  0  0  0  0
  5  6  1  0  0  0  0
  5  7  1  0  0  0  0
  5 21  1  0  0  0  0
  5 22  1  0  0  0  0
  6  8  1  0  0  0  0
  6 23  1  0  0  0  0
  6 24  1  0  0  0  0
  7  9  1  0  0  0  0
  7 25  1  0  0  0  0
  7 26  1  0  0  0  0
  8 10  1  0  0  0  0
  8 27  1  0  0  0  0
  8 28  1  0  0  0  0
  9 11  1  0  0  0  0
  9 29  1  0  0  0  0
  9 30  1  0  0  0  0
 10 12  1  0  0  0  0
 10 31  1  0  0  0  0
 10 32  1  0  0  0  0
 11 15  1  0  0  0  0
 11 33  1  0  0  0  0
 12 13  1  0  0  0  0
 12 34  1  0  0  0  0
 12 35  1  0  0  0  0
 13 14  2  0  0  0  0
 13 17  1  0  0  0  0
 14 16  1  0  0  0  0
 14 18  1  0  0  0  0
 15 36  1  0  0  0  0
 15 37  1  0  0  0  0
 15 38  1  0  0  0  0
 17 19  2  0  0  0  0
 17 39  1  0  0  0  0
 18 20  2  0  0  0  0
 19 20  1  0  0  0  0
 20 40  1  0  0  0  0
M  END
> <PUBCHEM_COMPOUND_CID>
14562693

> <PUBCHEM_CONFORMER_RMSD>
0.6

> <PUBCHEM_CONFORMER_DIVERSEORDER>
1
3
5
11
8
12
7
2
4
6
14
13
10
15
9
16

> <PUBCHEM_MMFF94_PARTIAL_CHARGES>
17
1 -0.43
11 0.28
12 0.14
13 -0.14
14 0.09
16 0.63
17 -0.15
18 0.08
19 0.08
2 -0.57
20 -0.15
3 -0.53
39 0.15
4 -0.53
40 0.15
41 0.45
42 0.45

> <PUBCHEM_EFFECTIVE_ROTOR_COUNT>
1.8

> <PUBCHEM_PHARMACOPHORE_FEATURES>
4
1 2 acceptor
1 3 donor
1 4 donor
6 13 14 17 18 19 20 rings

> <PUBCHEM_HEAVY_ATOM_COUNT>
20

> <PUBCHEM_ATOM_DEF_STEREO_COUNT>
0

> <PUBCHEM_ATOM_UDEF_STEREO_COUNT>
1

> <PUBCHEM_BOND_DEF_STEREO_COUNT>
0

> <PUBCHEM_BOND_UDEF_STEREO_COUNT>
0

> <PUBCHEM_ISOTOPIC_ATOM_COUNT>
0

> <PUBCHEM_COMPONENT_COUNT>
1

> <PUBCHEM_CACTVS_TAUTO_COUNT>
25

> <PUBCHEM_CONFORMER_ID>
00DE358500000001

> <PUBCHEM_MMFF94_ENERGY>
47.3152

> <PUBCHEM_FEATURE_SELFOVERLAP>
20.297

> <PUBCHEM_SHAPE_FINGERPRINT>
11086676 242 18189341323863132058
11132069 177 18411420592051855878
11370993 70 18340483374872130201
11640471 11 15338839716260874417
12011746 2 18411984697309191182
12077114 3 18408319969335198811
12251169 10 18339926029587415898
12382932 28 18339925900643379923
12633257 1 18271257100442874777
13140716 1 18412547643057471825
14178342 30 18268445559169481257
14790565 3 17616256218703243340
16945 1 18267022949841555150
19049666 15 17905615406364132285
19930374 2 18040991787664759055
21501502 16 18266179611585647640
21731228 192 18343863320581310090
21756936 100 17416405583587539464
23419403 2 16696074902983359143
23559900 14 18122917434654899750
23590187 152 18337388240717819931
238 59 18049416190212471517
24859131 72 18409166649170848323
2748010 2 18121798135648372239
4340502 62 18267863879190839821
495365 180 17761194528460063389
568465 68 18341052930227088680
7471813 234 16115979297776385671

> <PUBCHEM_SHAPE_MULTIPOLES>
388.11
6.2
3.23
1.33
1.91
0.5
0.23
-0.69
-3.02
-1.53
0.37
-0.25
-0.03
0.87

> <PUBCHEM_SHAPE_SELFOVERLAP>
803.063

> <PUBCHEM_SHAPE_VOLUME>
220.3

> <PUBCHEM_COORDINATE_TYPE>
2
5
10

$$$$
