16201011
  -OEChem-11202005232D

167181  0     1  0  0  0  0  0999 V2000
   10.0433   -0.0619    0.0000 O   0  0  0  0  0  0  0  0  0  0  0  0
    6.8135   -2.7118    0.0000 O   0  0  0  0  0  0  0  0  0  0  0  0
    8.7361    3.4933    0.0000 O   0  0  0  0  0  0  0  0  0  0  0  0
   11.7754    1.9381    0.0000 O   0  0  0  0  0  0  0  0  0  0  0  0
    6.2835   -0.1196    0.0000 O   0  0  0  0  0  0  0  0  0  0  0  0
    7.7641    5.9540    0.0000 O   0  0  0  0  0  0  0  0  0  0  0  0
    7.8099   -6.5588    0.0000 O   0  0  0  0  0  0  0  0  0  0  0  0
   11.1471    6.3661    0.0000 O   0  0  0  0  0  0  0  0  0  0  0  0
    7.7934    2.8445    0.0000 O   0  0  0  0  0  0  0  0  0  0  0  0
    6.3918    0.5872    0.0000 O   0  0  0  0  0  0  0  0  0  0  0  0
    9.8628   -4.8899    0.0000 O   0  0  0  0  0  0  0  0  0  0  0  0
   12.3527    2.7279    0.0000 O   0  0  0  0  0  0  0  0  0  0  0  0
    9.8245   -0.9230    0.0000 O   0  0  0  0  0  0  0  0  0  0  0  0
   11.6955    5.6111    0.0000 O   0  0  0  0  0  0  0  0  0  0  0  0
   10.2423   -4.0935    0.0000 O   0  0  0  0  0  0  0  0  0  0  0  0
    7.5152    6.8588    0.0000 O   0  0  0  0  0  0  0  0  0  0  0  0
   12.8933    8.4452    0.0000 O   0  0  0  0  0  0  0  0  0  0  0  0
    6.0988   -3.3058    0.0000 O   0  0  0  0  0  0  0  0  0  0  0  0
    9.3522    9.3802    0.0000 O   0  0  0  0  0  0  0  0  0  0  0  0
   14.3734    0.4381    0.0000 O   0  0  0  0  0  0  0  0  0  0  0  0
    3.3238   -3.6183    0.0000 O   0  0  0  0  0  0  0  0  0  0  0  0
    4.3292   -5.9695    0.0000 O   0  0  0  0  0  0  0  0  0  0  0  0
   14.3734   -1.5619    0.0000 O   0  0  0  0  0  0  0  0  0  0  0  0
    5.0647    5.9491    0.0000 O   0  0  0  0  0  0  0  0  0  0  0  0
    2.3038   -1.8978    0.0000 O   0  0  0  0  0  0  0  0  0  0  0  0
    4.0848    4.2058    0.0000 O   0  0  0  0  0  0  0  0  0  0  0  0
    9.9343   -9.4719    0.0000 O   0  0  0  0  0  0  0  0  0  0  0  0
   11.8137   -8.7879    0.0000 O   0  0  0  0  0  0  0  0  0  0  0  0
   15.5111    6.9171    0.0000 O   0  0  0  0  0  0  0  0  0  0  0  0
   15.5266    4.9171    0.0000 O   0  0  0  0  0  0  0  0  0  0  0  0
   10.0433    1.9381    0.0000 C   0  0  2  0  0  0  0  0  0  0  0  0
    7.7934   -0.9683    0.0000 C   0  0  1  0  0  0  0  0  0  0  0  0
   10.9093    1.4381    0.0000 C   0  0  2  0  0  0  0  0  0  0  0  0
    9.1773    1.4381    0.0000 C   0  0  0  0  0  0  0  0  0  0  0  0
    6.7935   -0.9799    0.0000 C   0  0  2  0  0  0  0  0  0  0  0  0
    8.2834   -0.0966    0.0000 C   0  0  0  0  0  0  0  0  0  0  0  0
   10.3853    2.8778    0.0000 C   0  0  0  0  0  0  0  0  0  0  0  0
    9.3984    5.3804    0.0000 C   0  0  2  0  0  0  0  0  0  0  0  0
    9.1773    0.4381    0.0000 C   0  0  0  0  0  0  0  0  0  0  0  0
   10.9093    0.4381    0.0000 C   0  0  1  0  0  0  0  0  0  0  0  0
    8.3034   -1.8285    0.0000 C   0  0  0  0  0  0  0  0  0  0  0  0
    6.3036   -1.8517    0.0000 C   0  0  1  0  0  0  0  0  0  0  0  0
    9.7189    3.6783    0.0000 C   0  0  0  0  0  0  0  0  0  0  0  0
    8.4157    5.1954    0.0000 C   0  0  2  0  0  0  0  0  0  0  0  0
   10.0500    4.6219    0.0000 C   0  0  0  0  0  0  0  0  0  0  0  0
    7.8135   -2.7003    0.0000 C   0  0  0  0  0  0  0  0  0  0  0  0
    8.0845    4.2518    0.0000 C   0  0  1  0  0  0  0  0  0  0  0  0
    8.1572   -4.5891    0.0000 C   0  0  2  0  0  0  0  0  0  0  0  0
    8.3308   -3.6043    0.0000 C   0  0  0  0  0  0  0  0  0  0  0  0
    9.3868    6.3804    0.0000 C   0  0  0  0  0  0  0  0  0  0  0  0
    8.2834    1.9728    0.0000 C   0  0  0  0  0  0  0  0  0  0  0  0
    7.3773    0.4173    0.0000 C   0  0  0  0  0  0  0  0  0  0  0  0
    8.9232   -5.2319    0.0000 C   0  0  2  0  0  0  0  0  0  0  0  0
   11.4104    3.0626    0.0000 C   0  0  0  0  0  0  0  0  0  0  0  0
   11.7754   -0.0619    0.0000 C   0  0  0  0  0  0  0  0  0  0  0  0
    9.3446   -1.8004    0.0000 C   0  0  0  0  0  0  0  0  0  0  0  0
   11.0706    4.8304    0.0000 C   0  0  0  0  0  0  0  0  0  0  0  0
    7.3773    1.4589    0.0000 C   0  0  0  0  0  0  0  0  0  0  0  0
    7.2175   -4.9312    0.0000 C   0  0  0  0  0  0  0  0  0  0  0  0
    5.3036   -1.8632    0.0000 C   0  0  0  0  0  0  0  0  0  0  0  0
    8.7496   -6.2167    0.0000 C   0  0  1  0  0  0  0  0  0  0  0  0
   10.2470    6.8904    0.0000 C   0  0  0  0  0  0  0  0  0  0  0  0
    9.3724   -3.6003    0.0000 C   0  0  0  0  0  0  0  0  0  0  0  0
   11.7554    4.0455    0.0000 C   0  0  0  0  0  0  0  0  0  0  0  0
    7.0846    4.2404    0.0000 C   0  0  0  0  0  0  0  0  0  0  0  0
    9.8827   -2.6923    0.0000 C   0  0  0  0  0  0  0  0  0  0  0  0
   10.2355    7.8903    0.0000 C   0  0  0  0  0  0  0  0  0  0  0  0
    8.5151    6.8703    0.0000 C   0  0  0  0  0  0  0  0  0  0  0  0
    7.0439   -5.9160    0.0000 C   0  0  0  0  0  0  0  0  0  0  0  0
   11.1232    8.4353    0.0000 C   0  0  0  0  0  0  0  0  0  0  0  0
   12.0471    6.8904    0.0000 C   0  0  1  0  0  0  0  0  0  0  0  0
   12.0351    7.9319    0.0000 C   0  0  1  0  0  0  0  0  0  0  0  0
   12.6414    0.4381    0.0000 C   0  0  0  0  0  0  0  0  0  0  0  0
   11.7754   -1.0619    0.0000 C   0  0  0  0  0  0  0  0  0  0  0  0
    9.5156   -6.8595    0.0000 C   0  0  0  0  0  0  0  0  0  0  0  0
    6.4299   -4.2493    0.0000 C   0  0  0  0  0  0  0  0  0  0  0  0
    9.3637    8.3802    0.0000 C   0  0  0  0  0  0  0  0  0  0  0  0
    4.8137   -2.7350    0.0000 C   0  0  0  0  0  0  0  0  0  0  0  0
    4.7936   -1.0030    0.0000 C   0  0  0  0  0  0  0  0  0  0  0  0
    8.5035    7.8703    0.0000 C   0  0  0  0  0  0  0  0  0  0  0  0
    6.5746    5.1005    0.0000 C   0  0  0  0  0  0  0  0  0  0  0  0
    6.5947    3.3686    0.0000 C   0  0  0  0  0  0  0  0  0  0  0  0
    6.0706   -6.2873    0.0000 C   0  0  0  0  0  0  0  0  0  0  0  0
   12.9170    6.3970    0.0000 C   0  0  0  0  0  0  0  0  0  0  0  0
   13.5074   -0.0619    0.0000 C   0  0  0  0  0  0  0  0  0  0  0  0
   12.6414   -1.5619    0.0000 C   0  0  0  0  0  0  0  0  0  0  0  0
    5.4485   -4.5981    0.0000 C   0  0  0  0  0  0  0  0  0  0  0  0
    3.8137   -2.7465    0.0000 C   0  0  0  0  0  0  0  0  0  0  0  0
    3.7936   -1.0145    0.0000 C   0  0  0  0  0  0  0  0  0  0  0  0
    5.2676   -5.6239    0.0000 C   0  0  0  0  0  0  0  0  0  0  0  0
    9.3419   -7.8443    0.0000 C   0  0  0  0  0  0  0  0  0  0  0  0
   10.4552   -6.5175    0.0000 C   0  0  0  0  0  0  0  0  0  0  0  0
   13.5074   -1.0619    0.0000 C   0  0  0  0  0  0  0  0  0  0  0  0
    5.5747    5.0889    0.0000 C   0  0  0  0  0  0  0  0  0  0  0  0
    5.5947    3.3571    0.0000 C   0  0  0  0  0  0  0  0  0  0  0  0
    3.3037   -1.8863    0.0000 C   0  0  0  0  0  0  0  0  0  0  0  0
    5.0848    4.2173    0.0000 C   0  0  0  0  0  0  0  0  0  0  0  0
   13.7791    6.9037    0.0000 C   0  0  0  0  0  0  0  0  0  0  0  0
   12.9247    5.3971    0.0000 C   0  0  0  0  0  0  0  0  0  0  0  0
   10.1079   -8.4871    0.0000 C   0  0  0  0  0  0  0  0  0  0  0  0
   11.2213   -7.1603    0.0000 C   0  0  0  0  0  0  0  0  0  0  0  0
   11.0476   -8.1451    0.0000 C   0  0  0  0  0  0  0  0  0  0  0  0
   14.6490    6.4104    0.0000 C   0  0  0  0  0  0  0  0  0  0  0  0
   13.7946    4.9038    0.0000 C   0  0  0  0  0  0  0  0  0  0  0  0
   14.6567    5.4104    0.0000 C   0  0  0  0  0  0  0  0  0  0  0  0
   10.8421    2.2288    0.0000 H   0  0  0  0  0  0  0  0  0  0  0  0
    7.3600   -0.2372    0.0000 H   0  0  0  0  0  0  0  0  0  0  0  0
   11.4463    1.1281    0.0000 H   0  0  0  0  0  0  0  0  0  0  0  0
    6.1735   -0.9871    0.0000 H   0  0  0  0  0  0  0  0  0  0  0  0
   10.1937    5.6804    0.0000 H   0  0  0  0  0  0  0  0  0  0  0  0
   10.9093   -0.1819    0.0000 H   0  0  0  0  0  0  0  0  0  0  0  0
    5.9998   -2.3922    0.0000 H   0  0  0  0  0  0  0  0  0  0  0  0
    8.6210    5.7804    0.0000 H   0  0  0  0  0  0  0  0  0  0  0  0
    7.8290    3.6870    0.0000 H   0  0  0  0  0  0  0  0  0  0  0  0
    8.9559   -4.2984    0.0000 H   0  0  0  0  0  0  0  0  0  0  0  0
    9.0308   -4.6213    0.0000 H   0  0  0  0  0  0  0  0  0  0  0  0
    6.8416    1.7710    0.0000 H   0  0  0  0  0  0  0  0  0  0  0  0
    9.3322   -6.0046    0.0000 H   0  0  0  0  0  0  0  0  0  0  0  0
   12.3642    4.1626    0.0000 H   0  0  0  0  0  0  0  0  0  0  0  0
   12.3123    1.6281    0.0000 H   0  0  0  0  0  0  0  0  0  0  0  0
   10.5027   -2.6827    0.0000 H   0  0  0  0  0  0  0  0  0  0  0  0
    5.6635   -0.1267    0.0000 H   0  0  0  0  0  0  0  0  0  0  0  0
   11.5112    8.9188    0.0000 H   0  0  0  0  0  0  0  0  0  0  0  0
   10.7132    8.9003    0.0000 H   0  0  0  0  0  0  0  0  0  0  0  0
   12.0507    6.2704    0.0000 H   0  0  0  0  0  0  0  0  0  0  0  0
   12.5762    7.6292    0.0000 H   0  0  0  0  0  0  0  0  0  0  0  0
    7.1548    5.8393    0.0000 H   0  0  0  0  0  0  0  0  0  0  0  0
   12.6414    1.0581    0.0000 H   0  0  0  0  0  0  0  0  0  0  0  0
   11.2384   -1.3719    0.0000 H   0  0  0  0  0  0  0  0  0  0  0  0
    5.1298   -3.2683    0.0000 H   0  0  0  0  0  0  0  0  0  0  0  0
    5.0974   -0.4625    0.0000 H   0  0  0  0  0  0  0  0  0  0  0  0
    7.9630    8.1740    0.0000 H   0  0  0  0  0  0  0  0  0  0  0  0
    7.1734    2.8517    0.0000 H   0  0  0  0  0  0  0  0  0  0  0  0
    6.1776    1.1690    0.0000 H   0  0  0  0  0  0  0  0  0  0  0  0
   10.3378   -5.2884    0.0000 H   0  0  0  0  0  0  0  0  0  0  0  0
    6.8784    5.6410    0.0000 H   0  0  0  0  0  0  0  0  0  0  0  0
    6.9109    2.8353    0.0000 H   0  0  0  0  0  0  0  0  0  0  0  0
   12.8246    3.1300    0.0000 H   0  0  0  0  0  0  0  0  0  0  0  0
   10.4443   -0.9087    0.0000 H   0  0  0  0  0  0  0  0  0  0  0  0
   12.3084    5.5176    0.0000 H   0  0  0  0  0  0  0  0  0  0  0  0
    5.9700   -6.8991    0.0000 H   0  0  0  0  0  0  0  0  0  0  0  0
   10.7768   -3.7795    0.0000 H   0  0  0  0  0  0  0  0  0  0  0  0
   12.6414   -2.1819    0.0000 H   0  0  0  0  0  0  0  0  0  0  0  0
    4.9750   -4.1977    0.0000 H   0  0  0  0  0  0  0  0  0  0  0  0
    3.4775   -0.4812    0.0000 H   0  0  0  0  0  0  0  0  0  0  0  0
    8.7593   -8.0564    0.0000 H   0  0  0  0  0  0  0  0  0  0  0  0
   10.5629   -5.9069    0.0000 H   0  0  0  0  0  0  0  0  0  0  0  0
    7.1990    7.3922    0.0000 H   0  0  0  0  0  0  0  0  0  0  0  0
    5.2909    2.8166    0.0000 H   0  0  0  0  0  0  0  0  0  0  0  0
   12.8838    9.0651    0.0000 H   0  0  0  0  0  0  0  0  0  0  0  0
    5.4896   -3.1911    0.0000 H   0  0  0  0  0  0  0  0  0  0  0  0
    8.8117    9.6840    0.0000 H   0  0  0  0  0  0  0  0  0  0  0  0
   13.7744    7.5237    0.0000 H   0  0  0  0  0  0  0  0  0  0  0  0
   12.3902    5.0830    0.0000 H   0  0  0  0  0  0  0  0  0  0  0  0
   11.8039   -6.9482    0.0000 H   0  0  0  0  0  0  0  0  0  0  0  0
   14.9104    0.1281    0.0000 H   0  0  0  0  0  0  0  0  0  0  0  0
    2.7038   -3.6254    0.0000 H   0  0  0  0  0  0  0  0  0  0  0  0
   13.7993    4.2838    0.0000 H   0  0  0  0  0  0  0  0  0  0  0  0
    4.2239   -6.5805    0.0000 H   0  0  0  0  0  0  0  0  0  0  0  0
   14.3734   -2.1819    0.0000 H   0  0  0  0  0  0  0  0  0  0  0  0
    4.4448    5.9419    0.0000 H   0  0  0  0  0  0  0  0  0  0  0  0
    2.0000   -2.4383    0.0000 H   0  0  0  0  0  0  0  0  0  0  0  0
    3.7810    3.6652    0.0000 H   0  0  0  0  0  0  0  0  0  0  0  0
    9.3518   -9.6840    0.0000 H   0  0  0  0  0  0  0  0  0  0  0  0
   11.7060   -9.3985    0.0000 H   0  0  0  0  0  0  0  0  0  0  0  0
   16.0505    6.6112    0.0000 H   0  0  0  0  0  0  0  0  0  0  0  0
   15.5313    4.2972    0.0000 H   0  0  0  0  0  0  0  0  0  0  0  0
  1 39  1  0  0  0  0
  1 40  1  0  0  0  0
  2 42  1  0  0  0  0
  2 46  1  0  0  0  0
  3 43  1  0  0  0  0
  3 47  1  0  0  0  0
 33  4  1  1  0  0  0
  4120  1  0  0  0  0
 35  5  1  6  0  0  0
  5122  1  0  0  0  0
 44  6  1  6  0  0  0
  6127  1  0  0  0  0
  7 61  1  0  0  0  0
  7 69  1  0  0  0  0
  8 62  1  0  0  0  0
  8 71  1  0  0  0  0
  9 51  1  0  0  0  0
  9133  1  0  0  0  0
 10 52  1  0  0  0  0
 10134  1  0  0  0  0
 53 11  1  1  0  0  0
 11135  1  0  0  0  0
 12 54  1  0  0  0  0
 12138  1  0  0  0  0
 13 56  1  0  0  0  0
 13139  1  0  0  0  0
 14 57  1  0  0  0  0
 14140  1  0  0  0  0
 15 63  1  0  0  0  0
 15142  1  0  0  0  0
 16 68  1  0  0  0  0
 16148  1  0  0  0  0
 72 17  1  6  0  0  0
 17150  1  0  0  0  0
 18 76  1  0  0  0  0
 18151  1  0  0  0  0
 19 77  1  0  0  0  0
 19152  1  0  0  0  0
 20 85  1  0  0  0  0
 20156  1  0  0  0  0
 21 88  1  0  0  0  0
 21157  1  0  0  0  0
 22 90  1  0  0  0  0
 22159  1  0  0  0  0
 23 93  1  0  0  0  0
 23160  1  0  0  0  0
 24 94  1  0  0  0  0
 24161  1  0  0  0  0
 25 96  1  0  0  0  0
 25162  1  0  0  0  0
 26 97  1  0  0  0  0
 26163  1  0  0  0  0
 27100  1  0  0  0  0
 27164  1  0  0  0  0
 28102  1  0  0  0  0
 28165  1  0  0  0  0
 29103  1  0  0  0  0
 29166  1  0  0  0  0
 30105  1  0  0  0  0
 30167  1  0  0  0  0
 31 33  1  0  0  0  0
 31 34  1  0  0  0  0
 31 37  1  0  0  0  0
 31106  1  1  0  0  0
 32 35  1  0  0  0  0
 32 36  1  0  0  0  0
 32 41  1  0  0  0  0
 32107  1  6  0  0  0
 33 40  1  0  0  0  0
 33108  1  0  0  0  0
 34 39  1  0  0  0  0
 34 51  2  0  0  0  0
 35 42  1  0  0  0  0
 35109  1  0  0  0  0
 36 39  2  0  0  0  0
 36 52  1  0  0  0  0
 37 43  1  0  0  0  0
 37 54  2  0  0  0  0
 38 44  1  0  0  0  0
 38 45  1  0  0  0  0
 38 50  1  0  0  0  0
 38110  1  6  0  0  0
 40 55  1  1  0  0  0
 40111  1  0  0  0  0
 41 46  1  0  0  0  0
 41 56  2  0  0  0  0
 42 60  1  6  0  0  0
 42112  1  0  0  0  0
 43 45  2  0  0  0  0
 44 47  1  0  0  0  0
 44113  1  0  0  0  0
 45 57  1  0  0  0  0
 46 49  2  0  0  0  0
 47 65  1  6  0  0  0
 47114  1  0  0  0  0
 48 49  1  0  0  0  0
 48 53  1  0  0  0  0
 48 59  1  0  0  0  0
 48115  1  1  0  0  0
 49 63  1  0  0  0  0
 50 62  1  0  0  0  0
 50 68  2  0  0  0  0
 51 58  1  0  0  0  0
 52 58  2  0  0  0  0
 53 61  1  0  0  0  0
 53116  1  0  0  0  0
 54 64  1  0  0  0  0
 55 73  2  0  0  0  0
 55 74  1  0  0  0  0
 56 66  1  0  0  0  0
 57 64  2  0  0  0  0
 58117  1  0  0  0  0
 59 69  1  0  0  0  0
 59 76  2  0  0  0  0
 60 78  2  0  0  0  0
 60 79  1  0  0  0  0
 61 75  1  1  0  0  0
 61118  1  0  0  0  0
 62 67  2  0  0  0  0
 63 66  2  0  0  0  0
 64119  1  0  0  0  0
 65 81  2  0  0  0  0
 65 82  1  0  0  0  0
 66121  1  0  0  0  0
 67 70  1  0  0  0  0
 67 77  1  0  0  0  0
 68 80  1  0  0  0  0
 69 83  2  0  0  0  0
 70 72  1  0  0  0  0
 70123  1  0  0  0  0
 70124  1  0  0  0  0
 71 72  1  0  0  0  0
 71 84  1  1  0  0  0
 71125  1  0  0  0  0
 72126  1  0  0  0  0
 73 85  1  0  0  0  0
 73128  1  0  0  0  0
 74 86  2  0  0  0  0
 74129  1  0  0  0  0
 75 91  2  0  0  0  0
 75 92  1  0  0  0  0
 76 87  1  0  0  0  0
 77 80  2  0  0  0  0
 78 88  1  0  0  0  0
 78130  1  0  0  0  0
 79 89  2  0  0  0  0
 79131  1  0  0  0  0
 80132  1  0  0  0  0
 81 94  1  0  0  0  0
 81136  1  0  0  0  0
 82 95  2  0  0  0  0
 82137  1  0  0  0  0
 83 90  1  0  0  0  0
 83141  1  0  0  0  0
 84 98  2  0  0  0  0
 84 99  1  0  0  0  0
 85 93  2  0  0  0  0
 86 93  1  0  0  0  0
 86143  1  0  0  0  0
 87 90  2  0  0  0  0
 87144  1  0  0  0  0
 88 96  2  0  0  0  0
 89 96  1  0  0  0  0
 89145  1  0  0  0  0
 91100  1  0  0  0  0
 91146  1  0  0  0  0
 92101  2  0  0  0  0
 92147  1  0  0  0  0
 94 97  2  0  0  0  0
 95 97  1  0  0  0  0
 95149  1  0  0  0  0
 98103  1  0  0  0  0
 98153  1  0  0  0  0
 99104  2  0  0  0  0
 99154  1  0  0  0  0
100102  2  0  0  0  0
101102  1  0  0  0  0
101155  1  0  0  0  0
103105  2  0  0  0  0
104105  1  0  0  0  0
104158  1  0  0  0  0
M  END
> <PUBCHEM_COMPOUND_CID>
16201011

> <PUBCHEM_COMPOUND_CANONICALIZED>
1

> <PUBCHEM_CACTVS_COMPLEXITY>
2900

> <PUBCHEM_CACTVS_HBOND_ACCEPTOR>
30

> <PUBCHEM_CACTVS_HBOND_DONOR>
25

> <PUBCHEM_CACTVS_ROTATABLE_BOND>
9

> <PUBCHEM_CACTVS_SUBSKEYS>
AAADcfB8PgAAAAAAAAAAAAAAAAAAAAAAAAA0aNGjQAAAAACRVAAAGgAACAAADRSgmAIwBoAABgCAAiBCAAACCAAgIAAIiAAGiIgNNyKGMRqCeCGlwBULuAfA4PwOoAADCAAIQABAAAYQABCAAAAAAAAAAA==

> <PUBCHEM_IUPAC_OPENEYE_NAME>
(2R,3R,4R)-2-(3,4-dihydroxyphenyl)-4-[(2R,3R,4R)-2-(3,4-dihydroxyphenyl)-4-[(2R,3R,4S)-2-(3,4-dihydroxyphenyl)-4-[(2R,3S)-2-(3,4-dihydroxyphenyl)-3,5,7-trihydroxy-chroman-8-yl]-3,5,7-trihydroxy-chroman-8-yl]-3,5,7-trihydroxy-chroman-8-yl]-8-[(2R,3R,4R)-2-(3,4-dihydroxyphenyl)-3,5,7-trihydroxy-chroman-4-yl]chromane-3,5,7-triol

> <PUBCHEM_IUPAC_CAS_NAME>
(2R,3R,4R)-2-(3,4-dihydroxyphenyl)-4-[(2R,3R,4R)-2-(3,4-dihydroxyphenyl)-4-[(2R,3R,4S)-2-(3,4-dihydroxyphenyl)-4-[(2R,3S)-2-(3,4-dihydroxyphenyl)-3,5,7-trihydroxy-3,4-dihydro-2H-1-benzopyran-8-yl]-3,5,7-trihydroxy-3,4-dihydro-2H-1-benzopyran-8-yl]-3,5,7-trihydroxy-3,4-dihydro-2H-1-benzopyran-8-yl]-8-[(2R,3R,4R)-2-(3,4-dihydroxyphenyl)-3,5,7-trihydroxy-3,4-dihydro-2H-1-benzopyran-4-yl]-3,4-dihydro-2H-1-benzopyran-3,5,7-triol

> <PUBCHEM_IUPAC_NAME_MARKUP>
(2<I>R</I>,3<I>R</I>,4<I>R</I>)-2-(3,4-dihydroxyphenyl)-4-[(2<I>R</I>,3<I>R</I>,4<I>R</I>)-2-(3,4-dihydroxyphenyl)-4-[(2<I>R</I>,3<I>R</I>,4<I>S</I>)-2-(3,4-dihydroxyphenyl)-4-[(2<I>R</I>,3<I>S</I>)-2-(3,4-dihydroxyphenyl)-3,5,7-trihydroxy-3,4-dihydro-2<I>H</I>-chromen-8-yl]-3,5,7-trihydroxy-3,4-dihydro-2<I>H</I>-chromen-8-yl]-3,5,7-trihydroxy-3,4-dihydro-2<I>H</I>-chromen-8-yl]-8-[(2<I>R</I>,3<I>R</I>,4<I>R</I>)-2-(3,4-dihydroxyphenyl)-3,5,7-trihydroxy-3,4-dihydro-2<I>H</I>-chromen-4-yl]-3,4-dihydro-2<I>H</I>-chromene-3,5,7-triol

> <PUBCHEM_IUPAC_NAME>
(2R,3R,4R)-2-(3,4-dihydroxyphenyl)-4-[(2R,3R,4R)-2-(3,4-dihydroxyphenyl)-4-[(2R,3R,4S)-2-(3,4-dihydroxyphenyl)-4-[(2R,3S)-2-(3,4-dihydroxyphenyl)-3,5,7-trihydroxy-3,4-dihydro-2H-chromen-8-yl]-3,5,7-trihydroxy-3,4-dihydro-2H-chromen-8-yl]-3,5,7-trihydroxy-3,4-dihydro-2H-chromen-8-yl]-8-[(2R,3R,4R)-2-(3,4-dihydroxyphenyl)-3,5,7-trihydroxy-3,4-dihydro-2H-chromen-4-yl]-3,4-dihydro-2H-chromene-3,5,7-triol

> <PUBCHEM_IUPAC_SYSTEMATIC_NAME>
(2R,3R,4R)-2-[3,4-bis(oxidanyl)phenyl]-4-[(2R,3R,4R)-2-[3,4-bis(oxidanyl)phenyl]-4-[(2R,3R,4S)-2-[3,4-bis(oxidanyl)phenyl]-4-[(2R,3S)-2-[3,4-bis(oxidanyl)phenyl]-3,5,7-tris(oxidanyl)-3,4-dihydro-2H-chromen-8-yl]-3,5,7-tris(oxidanyl)-3,4-dihydro-2H-chromen-8-yl]-3,5,7-tris(oxidanyl)-3,4-dihydro-2H-chromen-8-yl]-8-[(2R,3R,4R)-2-[3,4-bis(oxidanyl)phenyl]-3,5,7-tris(oxidanyl)-3,4-dihydro-2H-chromen-4-yl]-3,4-dihydro-2H-chromene-3,5,7-triol

> <PUBCHEM_IUPAC_TRADITIONAL_NAME>
(2R,3R,4R)-2-(3,4-dihydroxyphenyl)-4-[(2R,3R,4R)-2-(3,4-dihydroxyphenyl)-4-[(2R,3R,4S)-2-(3,4-dihydroxyphenyl)-4-[(2R,3S)-2-(3,4-dihydroxyphenyl)-3,5,7-trihydroxy-chroman-8-yl]-3,5,7-trihydroxy-chroman-8-yl]-3,5,7-trihydroxy-chroman-8-yl]-8-[(2R,3R,4R)-2-(3,4-dihydroxyphenyl)-3,5,7-trihydroxy-chroman-4-yl]chroman-3,5,7-triol

> <PUBCHEM_IUPAC_INCHI>
InChI=1S/C75H62O30/c76-28-16-41(88)51-50(17-28)101-68(24-2-7-31(78)37(84)12-24)63(97)59(51)53-43(90)20-45(92)55-61(65(99)70(103-73(53)55)26-4-9-33(80)39(86)14-26)57-47(94)22-48(95)58-62(66(100)71(105-75(57)58)27-5-10-34(81)40(87)15-27)56-46(93)21-44(91)54-60(64(98)69(104-74(54)56)25-3-8-32(79)38(85)13-25)52-42(89)19-35(82)29-18-49(96)67(102-72(29)52)23-1-6-30(77)36(83)11-23/h1-17,19-22,49,59-71,76-100H,18H2/t49-,59+,60-,61+,62-,63+,64+,65+,66+,67+,68+,69+,70+,71+/m0/s1

> <PUBCHEM_IUPAC_INCHIKEY>
QRFZGLTZLZZHCM-QSFSAXMJSA-N

> <PUBCHEM_XLOGP3_AA>
5.2

> <PUBCHEM_EXACT_MASS>
1442.332591

> <PUBCHEM_MOLECULAR_FORMULA>
C75H62O30

> <PUBCHEM_MOLECULAR_WEIGHT>
1443.3

> <PUBCHEM_OPENEYE_CAN_SMILES>
C1C(C(OC2=C1C(=CC(=C2C3C(C(OC4=C3C(=CC(=C4C5C(C(OC6=C(C(=CC(=C56)O)O)C7C(C(OC8=C(C(=CC(=C78)O)O)C9C(C(OC1=CC(=CC(=C91)O)O)C1=CC(=C(C=C1)O)O)O)C1=CC(=C(C=C1)O)O)O)C1=CC(=C(C=C1)O)O)O)O)O)C1=CC(=C(C=C1)O)O)O)O)O)C1=CC(=C(C=C1)O)O)O

> <PUBCHEM_OPENEYE_ISO_SMILES>
C1[C@@H]([C@H](OC2=C1C(=CC(=C2[C@@H]3[C@H]([C@H](OC4=C3C(=CC(=C4[C@@H]5[C@H]([C@H](OC6=C(C(=CC(=C56)O)O)[C@@H]7[C@H]([C@H](OC8=C(C(=CC(=C78)O)O)[C@@H]9[C@H]([C@H](OC1=CC(=CC(=C91)O)O)C1=CC(=C(C=C1)O)O)O)C1=CC(=C(C=C1)O)O)O)C1=CC(=C(C=C1)O)O)O)O)O)C1=CC(=C(C=C1)O)O)O)O)O)C1=CC(=C(C=C1)O)O)O

> <PUBCHEM_CACTVS_TPSA>
552

> <PUBCHEM_MONOISOTOPIC_WEIGHT>
1442.332591

> <PUBCHEM_TOTAL_CHARGE>
0

> <PUBCHEM_HEAVY_ATOM_COUNT>
105

> <PUBCHEM_ATOM_DEF_STEREO_COUNT>
14

> <PUBCHEM_ATOM_UDEF_STEREO_COUNT>
0

> <PUBCHEM_BOND_DEF_STEREO_COUNT>
0

> <PUBCHEM_BOND_UDEF_STEREO_COUNT>
0

> <PUBCHEM_ISOTOPIC_ATOM_COUNT>
0

> <PUBCHEM_COMPONENT_COUNT>
1

> <PUBCHEM_CACTVS_TAUTO_COUNT>
-1

> <PUBCHEM_COORDINATE_TYPE>
1
5
255

> <PUBCHEM_BONDANNOTATIONS>
100  102  8
101  102  8
103  105  8
104  105  8
53  11  5
72  17  6
31  106  5
32  107  6
34  39  8
34  51  8
36  39  8
36  52  8
37  43  8
37  54  8
38  110  6
33  4  5
40  55  5
41  46  8
41  56  8
42  60  6
43  45  8
45  57  8
46  49  8
47  65  6
48  115  5
49  63  8
35  5  6
50  62  8
50  68  8
51  58  8
52  58  8
54  64  8
55  73  8
55  74  8
56  66  8
57  64  8
59  69  8
59  76  8
44  6  6
60  78  8
60  79  8
61  75  5
62  67  8
63  66  8
65  81  8
65  82  8
67  77  8
68  80  8
69  83  8
71  84  5
73  85  8
74  86  8
75  91  8
75  92  8
76  87  8
77  80  8
78  88  8
79  89  8
81  94  8
82  95  8
83  90  8
84  98  8
84  99  8
85  93  8
86  93  8
87  90  8
88  96  8
89  96  8
91  100  8
92  101  8
94  97  8
95  97  8
98  103  8
99  104  8

$$$$
