51136567
  -OEChem-08312002193D

 37 39  0     1  0  0  0  0  0999 V2000
   -1.5872   -1.5400    0.2389 O   0  0  0  0  0  0  0  0  0  0  0  0
   -1.3886    2.5561    0.0653 O   0  0  0  0  0  0  0  0  0  0  0  0
   -6.2559   -1.4706   -0.5816 O   0  0  0  0  0  0  0  0  0  0  0  0
    5.9894   -1.0209   -0.4076 O   0  0  0  0  0  0  0  0  0  0  0  0
   -0.1863    0.4598    0.1928 C   0  0  1  0  0  0  0  0  0  0  0  0
    0.9494    1.1860    0.9027 C   0  0  0  0  0  0  0  0  0  0  0  0
   -0.5647   -0.8186    0.9329 C   0  0  0  0  0  0  0  0  0  0  0  0
   -1.4243    1.3316    0.0940 C   0  0  0  0  0  0  0  0  0  0  0  0
   -2.7072    0.6084   -0.0392 C   0  0  0  0  0  0  0  0  0  0  0  0
    2.2908    0.5986    0.5547 C   0  0  0  0  0  0  0  0  0  0  0  0
   -2.7124   -0.7882    0.0210 C   0  0  0  0  0  0  0  0  0  0  0  0
   -3.8961    1.3089   -0.2601 C   0  0  0  0  0  0  0  0  0  0  0  0
    2.8196   -0.4382    1.3234 C   0  0  0  0  0  0  0  0  0  0  0  0
    3.0051    1.0913   -0.5375 C   0  0  0  0  0  0  0  0  0  0  0  0
   -3.9047   -1.4867   -0.1754 C   0  0  0  0  0  0  0  0  0  0  0  0
   -5.0882    0.6056   -0.4363 C   0  0  0  0  0  0  0  0  0  0  0  0
   -5.0920   -0.7890   -0.3991 C   0  0  0  0  0  0  0  0  0  0  0  0
    4.0625   -0.9823    1.0003 C   0  0  0  0  0  0  0  0  0  0  0  0
    4.2482    0.5473   -0.8607 C   0  0  0  0  0  0  0  0  0  0  0  0
    4.7769   -0.4894   -0.0918 C   0  0  0  0  0  0  0  0  0  0  0  0
    6.6656   -0.4696   -1.5367 C   0  0  0  0  0  0  0  0  0  0  0  0
    0.0878    0.2220   -0.8445 H   0  0  0  0  0  0  0  0  0  0  0  0
    0.8050    1.1767    1.9914 H   0  0  0  0  0  0  0  0  0  0  0  0
    0.9708    2.2501    0.6337 H   0  0  0  0  0  0  0  0  0  0  0  0
   -0.9013   -0.6203    1.9596 H   0  0  0  0  0  0  0  0  0  0  0  0
    0.2866   -1.5013    0.9982 H   0  0  0  0  0  0  0  0  0  0  0  0
   -3.9124    2.3940   -0.3089 H   0  0  0  0  0  0  0  0  0  0  0  0
    2.2802   -0.8254    2.1836 H   0  0  0  0  0  0  0  0  0  0  0  0
    2.6018    1.8971   -1.1452 H   0  0  0  0  0  0  0  0  0  0  0  0
   -3.9125   -2.5735   -0.1448 H   0  0  0  0  0  0  0  0  0  0  0  0
   -6.0083    1.1574   -0.6106 H   0  0  0  0  0  0  0  0  0  0  0  0
    4.4703   -1.7884    1.6041 H   0  0  0  0  0  0  0  0  0  0  0  0
    4.7488    0.9767   -1.7218 H   0  0  0  0  0  0  0  0  0  0  0  0
   -6.9761   -0.8323   -0.7232 H   0  0  0  0  0  0  0  0  0  0  0  0
    6.1015   -0.6305   -2.4616 H   0  0  0  0  0  0  0  0  0  0  0  0
    6.9151    0.5855   -1.3807 H   0  0  0  0  0  0  0  0  0  0  0  0
    7.6123   -1.0096   -1.6418 H   0  0  0  0  0  0  0  0  0  0  0  0
  1  7  1  0  0  0  0
  1 11  1  0  0  0  0
  2  8  2  0  0  0  0
  3 17  1  0  0  0  0
  3 34  1  0  0  0  0
  4 20  1  0  0  0  0
  4 21  1  0  0  0  0
  5  6  1  0  0  0  0
  5  7  1  0  0  0  0
  5  8  1  0  0  0  0
  5 22  1  0  0  0  0
  6 10  1  0  0  0  0
  6 23  1  0  0  0  0
  6 24  1  0  0  0  0
  7 25  1  0  0  0  0
  7 26  1  0  0  0  0
  8  9  1  0  0  0  0
  9 11  2  0  0  0  0
  9 12  1  0  0  0  0
 10 13  2  0  0  0  0
 10 14  1  0  0  0  0
 11 15  1  0  0  0  0
 12 16  2  0  0  0  0
 12 27  1  0  0  0  0
 13 18  1  0  0  0  0
 13 28  1  0  0  0  0
 14 19  2  0  0  0  0
 14 29  1  0  0  0  0
 15 17  2  0  0  0  0
 15 30  1  0  0  0  0
 16 17  1  0  0  0  0
 16 31  1  0  0  0  0
 18 20  2  0  0  0  0
 18 32  1  0  0  0  0
 19 20  1  0  0  0  0
 19 33  1  0  0  0  0
 21 35  1  0  0  0  0
 21 36  1  0  0  0  0
 21 37  1  0  0  0  0
M  END
> <PUBCHEM_COMPOUND_CID>
51136567

> <PUBCHEM_CONFORMER_RMSD>
0.6

> <PUBCHEM_CONFORMER_DIVERSEORDER>
1
19
10
20
8
9
3
11
13
21
25
16
15
24
7
18
23
2
17
14
22
5
4
12
6

> <PUBCHEM_MMFF94_PARTIAL_CHARGES>
29
1 -0.36
10 -0.14
11 0.08
12 -0.15
13 -0.15
14 -0.15
15 -0.15
16 -0.15
17 0.08
18 -0.15
19 -0.15
2 -0.57
20 0.08
21 0.28
27 0.15
28 0.15
29 0.15
3 -0.53
30 0.15
31 0.15
32 0.15
33 0.15
34 0.45
4 -0.36
5 0.06
6 0.14
7 0.28
8 0.42
9 0.09

> <PUBCHEM_EFFECTIVE_ROTOR_COUNT>
3.6

> <PUBCHEM_PHARMACOPHORE_FEATURES>
7
1 1 acceptor
1 2 acceptor
1 3 donor
1 4 acceptor
6 1 5 7 8 9 11 rings
6 10 13 14 18 19 20 rings
6 9 11 12 15 16 17 rings

> <PUBCHEM_HEAVY_ATOM_COUNT>
21

> <PUBCHEM_ATOM_DEF_STEREO_COUNT>
0

> <PUBCHEM_ATOM_UDEF_STEREO_COUNT>
1

> <PUBCHEM_BOND_DEF_STEREO_COUNT>
0

> <PUBCHEM_BOND_UDEF_STEREO_COUNT>
0

> <PUBCHEM_ISOTOPIC_ATOM_COUNT>
0

> <PUBCHEM_COMPONENT_COUNT>
1

> <PUBCHEM_CACTVS_TAUTO_COUNT>
9

> <PUBCHEM_CONFORMER_ID>
030C483700000001

> <PUBCHEM_MMFF94_ENERGY>
68.7101

> <PUBCHEM_FEATURE_SELFOVERLAP>
35.552

> <PUBCHEM_SHAPE_FINGERPRINT>
11128504 68 17749390381744945500
11315181 36 18060704987320976344
11524674 6 16415478268522662231
12236239 1 17821727212965513296
12516196 113 17918272065442700616
12596602 18 13542455484064725207
12633257 1 13110955427694834768
12730499 353 14562532856175321808
12788726 201 18337107856652481016
12954195 1 18271527481588001425
12969540 114 14346069849925124323
13288520 33 18343584040654446165
13402501 40 17846503616903255326
13668630 136 17775290460711827662
13685833 64 17418096524869431646
13862211 1 18340197579501535643
14123256 34 18202006546463215454
14341114 176 10591770874651193028
14386348 63 17632860811123572150
14528608 73 17748827431976036620
14576447 43 18261109652317599288
15048467 5 11386362643129351143
15183329 4 18187085040240635878
15188451 53 15194987402159608805
15196674 1 18409442609604677801
16752209 62 18409720738363846417
17804303 29 18342451569590247585
17834072 33 18187083949413829732
17844677 252 17846500348158810401
17870717 6 18342745091375002687
18681886 176 18411134758411138744
19784866 240 17846505833000403720
200 152 17346597469389210552
2026 5 17773608109818325422
20374829 77 18342454846117271393
20871999 31 18187083944686462760
21150785 3 16588025740470867127
21267235 1 18410294748776049771
21637258 2 16773507867782964071
221357 26 18408882949290262972
2215653 11 18130781239877795007
2297311 6 18343867701432030265
23175994 123 17132109156654333577
23198884 109 17095244713338652694
23402539 116 18410852140329802613
23522609 53 18126316157449576824
23559900 14 18340482361297317264
239999 70 18202561796478907992
26918003 58 14476956792016215420
29717793 49 18411986853999763884
3004659 81 18334574646766349436
335352 9 18410288104699117437
34797466 226 18060705018314324300
44062 13 18130222774018690551
465052 167 18059296572965588735
474 4 16516257356830451156
5104073 3 18411695512998203121
542803 24 16950562172878109401
59755656 215 18272652316142631326

> <PUBCHEM_SHAPE_MULTIPOLES>
408.69
14.75
1.71
1.05
6.17
0.38
0.01
-5.21
-6
-1.37
0.03
1.32
-0.11
-0.28

> <PUBCHEM_SHAPE_SELFOVERLAP>
892.13

> <PUBCHEM_SHAPE_VOLUME>
221.4

> <PUBCHEM_COORDINATE_TYPE>
2
5
10

$$$$
