90473944
  -OEChem-08312003443D

 76 81  0     1  0  0  0  0  0999 V2000
    3.0470    1.3543   -0.2738 O   0  0  0  0  0  0  0  0  0  0  0  0
    5.0205    0.4772    0.6899 O   0  0  0  0  0  0  0  0  0  0  0  0
    0.1161   -2.6628    1.1512 O   0  0  0  0  0  0  0  0  0  0  0  0
   -8.2689    0.0717   -0.1582 O   0  0  0  0  0  0  0  0  0  0  0  0
    0.4787   -0.5538    0.0278 C   0  0  1  0  0  0  0  0  0  0  0  0
   -0.3088    0.7125    0.4276 C   0  0  2  0  0  0  0  0  0  0  0  0
    1.7789   -0.3085    0.8472 C   0  0  2  0  0  0  0  0  0  0  0  0
   -1.6911    0.8081   -0.2303 C   0  0  1  0  0  0  0  0  0  0  0  0
    2.0203    1.2089    0.7101 C   0  0  2  0  0  0  0  0  0  0  0  0
   -2.5401   -0.4139    0.2511 C   0  0  1  0  0  0  0  0  0  0  0  0
    0.7038    1.8295    0.1938 C   0  0  0  0  0  0  0  0  0  0  0  0
   -4.0065   -0.3728   -0.3176 C   0  0  2  0  0  0  0  0  0  0  0  0
    3.0745   -0.9594    0.3528 C   0  0  1  0  0  0  0  0  0  0  0  0
   -1.8101   -1.7583    0.0267 C   0  0  0  0  0  0  0  0  0  0  0  0
   -4.6338    0.9943    0.1061 C   0  0  1  0  0  0  0  0  0  0  0  0
   -0.3604   -1.7334    0.5018 C   0  0  0  0  0  0  0  0  0  0  0  0
    3.9277    0.2123   -0.2070 C   0  0  1  0  0  0  0  0  0  0  0  0
   -2.3853    2.1355    0.1093 C   0  0  0  0  0  0  0  0  0  0  0  0
   -3.8231    2.1914   -0.4019 C   0  0  0  0  0  0  0  0  0  0  0  0
    0.7047   -0.7114   -1.4898 C   0  0  0  0  0  0  0  0  0  0  0  0
   -4.8690   -1.5040    0.3114 C   0  0  0  0  0  0  0  0  0  0  0  0
    2.4648    1.8607    2.0200 C   0  0  0  0  0  0  0  0  0  0  0  0
   -6.1137    1.1158   -0.2780 C   0  0  0  0  0  0  0  0  0  0  0  0
   -4.0044   -0.5585   -1.8569 C   0  0  0  0  0  0  0  0  0  0  0  0
    3.7532   -1.7634    1.4659 C   0  0  0  0  0  0  0  0  0  0  0  0
    4.4276   -0.0626   -1.6422 C   0  0  0  0  0  0  0  0  0  0  0  0
   -6.3581   -1.3942   -0.0230 C   0  0  0  0  0  0  0  0  0  0  0  0
   -6.9329   -0.0239    0.3246 C   0  0  2  0  0  0  0  0  0  0  0  0
    5.7931   -0.7333   -1.6290 C   0  0  0  0  0  0  0  0  0  0  0  0
    6.1313    1.1166    0.0724 C   0  0  0  0  0  0  0  0  0  0  0  0
    6.8187    0.1506   -0.9012 C   0  0  1  0  0  0  0  0  0  0  0  0
    7.8452   -0.7252   -0.1808 C   0  0  0  0  0  0  0  0  0  0  0  0
   -0.4899    0.6816    1.5161 H   0  0  0  0  0  0  0  0  0  0  0  0
    1.5802   -0.5700    1.8960 H   0  0  0  0  0  0  0  0  0  0  0  0
   -1.5745    0.7768   -1.3177 H   0  0  0  0  0  0  0  0  0  0  0  0
   -2.6277   -0.3112    1.3449 H   0  0  0  0  0  0  0  0  0  0  0  0
    0.7701    2.0990   -0.8664 H   0  0  0  0  0  0  0  0  0  0  0  0
    0.4266    2.7348    0.7446 H   0  0  0  0  0  0  0  0  0  0  0  0
    2.8568   -1.6856   -0.4346 H   0  0  0  0  0  0  0  0  0  0  0  0
   -1.8030   -2.0470   -1.0279 H   0  0  0  0  0  0  0  0  0  0  0  0
   -2.3180   -2.5542    0.5824 H   0  0  0  0  0  0  0  0  0  0  0  0
   -4.6010    1.0425    1.2060 H   0  0  0  0  0  0  0  0  0  0  0  0
   -1.8257    2.9736   -0.3222 H   0  0  0  0  0  0  0  0  0  0  0  0
   -2.3871    2.2852    1.1967 H   0  0  0  0  0  0  0  0  0  0  0  0
   -4.2822    3.1254   -0.0550 H   0  0  0  0  0  0  0  0  0  0  0  0
   -3.8308    2.2318   -1.4970 H   0  0  0  0  0  0  0  0  0  0  0  0
    1.3336    0.0794   -1.9066 H   0  0  0  0  0  0  0  0  0  0  0  0
   -0.2301   -0.7038   -2.0577 H   0  0  0  0  0  0  0  0  0  0  0  0
    1.1726   -1.6744   -1.7214 H   0  0  0  0  0  0  0  0  0  0  0  0
   -4.7564   -1.4840    1.4034 H   0  0  0  0  0  0  0  0  0  0  0  0
   -4.5161   -2.4879   -0.0196 H   0  0  0  0  0  0  0  0  0  0  0  0
    3.3579    1.3816    2.4320 H   0  0  0  0  0  0  0  0  0  0  0  0
    1.6771    1.8099    2.7790 H   0  0  0  0  0  0  0  0  0  0  0  0
    2.7228    2.9130    1.8564 H   0  0  0  0  0  0  0  0  0  0  0  0
   -6.5195    2.0701    0.0829 H   0  0  0  0  0  0  0  0  0  0  0  0
   -6.2439    1.1467   -1.3664 H   0  0  0  0  0  0  0  0  0  0  0  0
   -3.6601   -1.5600   -2.1353 H   0  0  0  0  0  0  0  0  0  0  0  0
   -3.3594    0.1601   -2.3682 H   0  0  0  0  0  0  0  0  0  0  0  0
   -5.0012   -0.4445   -2.2918 H   0  0  0  0  0  0  0  0  0  0  0  0
    3.9576   -1.1491    2.3490 H   0  0  0  0  0  0  0  0  0  0  0  0
    4.6980   -2.1925    1.1177 H   0  0  0  0  0  0  0  0  0  0  0  0
    3.1097   -2.5914    1.7827 H   0  0  0  0  0  0  0  0  0  0  0  0
    4.5037    0.8834   -2.1961 H   0  0  0  0  0  0  0  0  0  0  0  0
    3.7071   -0.6628   -2.2087 H   0  0  0  0  0  0  0  0  0  0  0  0
   -6.5312   -1.6141   -1.0835 H   0  0  0  0  0  0  0  0  0  0  0  0
   -6.9129   -2.1693    0.5206 H   0  0  0  0  0  0  0  0  0  0  0  0
   -6.9657    0.0942    1.4145 H   0  0  0  0  0  0  0  0  0  0  0  0
    5.7053   -1.7145   -1.1466 H   0  0  0  0  0  0  0  0  0  0  0  0
    6.1316   -0.9211   -2.6546 H   0  0  0  0  0  0  0  0  0  0  0  0
    6.8209    1.4412    0.8587 H   0  0  0  0  0  0  0  0  0  0  0  0
    5.7889    2.0227   -0.4424 H   0  0  0  0  0  0  0  0  0  0  0  0
    7.3644    0.7529   -1.6387 H   0  0  0  0  0  0  0  0  0  0  0  0
   -8.7777   -0.6539    0.2420 H   0  0  0  0  0  0  0  0  0  0  0  0
    8.3354   -1.4066   -0.8843 H   0  0  0  0  0  0  0  0  0  0  0  0
    8.6223   -0.1093    0.2841 H   0  0  0  0  0  0  0  0  0  0  0  0
    7.3758   -1.3261    0.6056 H   0  0  0  0  0  0  0  0  0  0  0  0
  1  9  1  0  0  0  0
  1 17  1  0  0  0  0
  2 17  1  0  0  0  0
  2 30  1  0  0  0  0
  3 16  2  0  0  0  0
  4 28  1  0  0  0  0
  4 73  1  0  0  0  0
  5  6  1  0  0  0  0
  5  7  1  0  0  0  0
  5 16  1  0  0  0  0
  5 20  1  0  0  0  0
  6  8  1  0  0  0  0
  6 11  1  0  0  0  0
  6 33  1  0  0  0  0
  7  9  1  0  0  0  0
  7 13  1  0  0  0  0
  7 34  1  0  0  0  0
  8 10  1  0  0  0  0
  8 18  1  0  0  0  0
  8 35  1  0  0  0  0
  9 11  1  0  0  0  0
  9 22  1  0  0  0  0
 10 12  1  0  0  0  0
 10 14  1  0  0  0  0
 10 36  1  0  0  0  0
 11 37  1  0  0  0  0
 11 38  1  0  0  0  0
 12 15  1  0  0  0  0
 12 21  1  0  0  0  0
 12 24  1  0  0  0  0
 13 17  1  0  0  0  0
 13 25  1  0  0  0  0
 13 39  1  0  0  0  0
 14 16  1  0  0  0  0
 14 40  1  0  0  0  0
 14 41  1  0  0  0  0
 15 19  1  0  0  0  0
 15 23  1  0  0  0  0
 15 42  1  0  0  0  0
 17 26  1  0  0  0  0
 18 19  1  0  0  0  0
 18 43  1  0  0  0  0
 18 44  1  0  0  0  0
 19 45  1  0  0  0  0
 19 46  1  0  0  0  0
 20 47  1  0  0  0  0
 20 48  1  0  0  0  0
 20 49  1  0  0  0  0
 21 27  1  0  0  0  0
 21 50  1  0  0  0  0
 21 51  1  0  0  0  0
 22 52  1  0  0  0  0
 22 53  1  0  0  0  0
 22 54  1  0  0  0  0
 23 28  1  0  0  0  0
 23 55  1  0  0  0  0
 23 56  1  0  0  0  0
 24 57  1  0  0  0  0
 24 58  1  0  0  0  0
 24 59  1  0  0  0  0
 25 60  1  0  0  0  0
 25 61  1  0  0  0  0
 25 62  1  0  0  0  0
 26 29  1  0  0  0  0
 26 63  1  0  0  0  0
 26 64  1  0  0  0  0
 27 28  1  0  0  0  0
 27 65  1  0  0  0  0
 27 66  1  0  0  0  0
 28 67  1  0  0  0  0
 29 31  1  0  0  0  0
 29 68  1  0  0  0  0
 29 69  1  0  0  0  0
 30 31  1  0  0  0  0
 30 70  1  0  0  0  0
 30 71  1  0  0  0  0
 31 32  1  0  0  0  0
 31 72  1  0  0  0  0
 32 74  1  0  0  0  0
 32 75  1  0  0  0  0
 32 76  1  0  0  0  0
M  END
> <PUBCHEM_COMPOUND_CID>
90473944

> <PUBCHEM_CONFORMER_RMSD>
0.8

> <PUBCHEM_CONFORMER_DIVERSEORDER>
1

> <PUBCHEM_MMFF94_PARTIAL_CHARGES>
12
1 -0.56
14 0.06
16 0.45
17 0.56
2 -0.56
28 0.28
3 -0.57
30 0.28
4 -0.68
5 0.06
73 0.4
9 0.28

> <PUBCHEM_EFFECTIVE_ROTOR_COUNT>
3

> <PUBCHEM_PHARMACOPHORE_FEATURES>
11
1 1 acceptor
1 2 acceptor
1 3 acceptor
1 4 acceptor
1 4 donor
5 1 7 9 13 17 rings
5 5 6 7 9 11 rings
6 12 15 21 23 27 28 rings
6 2 17 26 29 30 31 rings
6 5 6 8 10 14 16 rings
6 8 10 12 15 18 19 rings

> <PUBCHEM_HEAVY_ATOM_COUNT>
32

> <PUBCHEM_ATOM_DEF_STEREO_COUNT>
12

> <PUBCHEM_ATOM_UDEF_STEREO_COUNT>
0

> <PUBCHEM_BOND_DEF_STEREO_COUNT>
0

> <PUBCHEM_BOND_UDEF_STEREO_COUNT>
0

> <PUBCHEM_ISOTOPIC_ATOM_COUNT>
0

> <PUBCHEM_COMPONENT_COUNT>
1

> <PUBCHEM_CACTVS_TAUTO_COUNT>
2

> <PUBCHEM_CONFORMER_ID>
056485D800000001

> <PUBCHEM_MMFF94_ENERGY>
125.8819

> <PUBCHEM_FEATURE_SELFOVERLAP>
56.275

> <PUBCHEM_SHAPE_FINGERPRINT>
10076449 9 18131078147357997104
10165383 225 17967253100704564694
10299344 5 18114181929918307571
10670039 82 18260265222375621197
11488393 25 17416138178565066319
11524674 6 16487254387636464599
11963148 33 18412257363578107519
11991303 11 16877952688407235178
12011746 2 18410577292329023104
12107698 1 17561083609525472233
12166972 35 17821450191954766061
12236239 1 17603865602882923024
12403259 415 18341038679868738729
12516196 113 17489590061142519864
12741549 16 16487253237059781786
12788726 201 18200876158727239560
13402501 40 18272373074453403596
13533116 47 18114175298510330859
13685833 64 17489874830005653732
13782708 43 17774720990565683582
13811026 1 18202001040314914486
14251764 18 18113333111257834939
14294032 229 17970066652408755893
14617045 38 18409450280389790675
14856354 85 18187090581123247623
15082195 135 18269572653942753020
15131766 46 14853603404301309190
15142383 8 14620522194218784713
15183329 4 18409168801133904578
15788980 27 11887953267762130493
15840311 113 17023192664293305020
15849732 13 17603871112851347014
15927050 60 18334292093400661066
16087824 20 18337108953251866565
18335252 98 17530693108608146779
18608769 82 18409168852700132755
18681886 176 18261109711767243977
19319366 153 17749100085201425930
19611394 137 17605011375861979449
20105231 36 18341905099342386655
21033648 29 18340196509400382985
21150785 3 16732704960768248661
21267235 1 18411704309650198657
21279426 13 18340772516392013502
21781051 124 18042701644337142619
21792961 116 18130227060247624404
22122407 14 15285367192937160053
221357 26 18202283597602577169
22224240 67 12179848329170477888
22393880 68 18341887472384828729
23522609 53 18118711879345002421
23559900 14 18270956963685920424
23569943 247 17557162618128366438
249057 3 17132112463720875501
3004659 81 18408323302393630024
335352 9 18411138060423260061
34797466 226 18202568393179890324
350125 39 18408601457413238585
4073 2 17968662734260998202
4093350 32 17131828807460116800
4325135 7 18040156210551866613
4340502 62 14273453682489547752
504579 68 18338506526439204607
5104073 3 18412536596918454433
5265222 85 18337962315127135726
5486654 2 18333733524724285363
59755656 215 18342740702293121975
59755656 520 17967248732565049947

> <PUBCHEM_SHAPE_MULTIPOLES>
635.07
18.82
2.09
1.32
2.23
0.13
0.13
-1
3.68
0.8
-0.57
-1.27
-0.16
0.43

> <PUBCHEM_SHAPE_SELFOVERLAP>
1368.331

> <PUBCHEM_SHAPE_VOLUME>
346.8

> <PUBCHEM_COORDINATE_TYPE>
2
5
10

$$$$
