404571
  -OEChem-08312002173D

 39 41  0     1  0  0  0  0  0999 V2000
    1.4200   -1.6562    0.1543 O   0  0  0  0  0  0  0  0  0  0  0  0
    1.6289    2.4430    0.1520 O   0  0  0  0  0  0  0  0  0  0  0  0
    4.2003    2.3163   -0.1509 O   0  0  0  0  0  0  0  0  0  0  0  0
    6.0994   -2.0178   -0.5144 O   0  0  0  0  0  0  0  0  0  0  0  0
   -6.0294   -0.3445   -0.7235 O   0  0  0  0  0  0  0  0  0  0  0  0
   -4.7915   -1.5522    1.4517 O   0  0  0  0  0  0  0  0  0  0  0  0
    0.2237    0.4728    0.1508 C   0  0  2  0  0  0  0  0  0  0  0  0
   -0.8604    1.2786    0.8551 C   0  0  0  0  0  0  0  0  0  0  0  0
    0.4483   -0.8656    0.8462 C   0  0  0  0  0  0  0  0  0  0  0  0
    1.5438    1.2209    0.1293 C   0  0  0  0  0  0  0  0  0  0  0  0
    2.7538    0.3798    0.0053 C   0  0  0  0  0  0  0  0  0  0  0  0
   -2.2393    0.8435    0.4365 C   0  0  0  0  0  0  0  0  0  0  0  0
    2.6202   -1.0117    0.0049 C   0  0  0  0  0  0  0  0  0  0  0  0
    4.0125    0.9671   -0.1482 C   0  0  0  0  0  0  0  0  0  0  0  0
   -2.8827   -0.1621    1.1442 C   0  0  0  0  0  0  0  0  0  0  0  0
   -2.8477    1.4536   -0.6516 C   0  0  0  0  0  0  0  0  0  0  0  0
    3.7446   -1.8166   -0.1841 C   0  0  0  0  0  0  0  0  0  0  0  0
    5.1356    0.1566   -0.3171 C   0  0  0  0  0  0  0  0  0  0  0  0
    5.0016   -1.2319   -0.3401 C   0  0  0  0  0  0  0  0  0  0  0  0
   -4.1603   -0.5658    0.7561 C   0  0  0  0  0  0  0  0  0  0  0  0
   -4.1251    1.0501   -1.0399 C   0  0  0  0  0  0  0  0  0  0  0  0
   -4.7815    0.0405   -0.3360 C   0  0  0  0  0  0  0  0  0  0  0  0
   -6.1146   -1.3983   -1.6808 C   0  0  0  0  0  0  0  0  0  0  0  0
   -0.0344    0.3052   -0.9042 H   0  0  0  0  0  0  0  0  0  0  0  0
   -0.7660    2.3501    0.6346 H   0  0  0  0  0  0  0  0  0  0  0  0
   -0.7570    1.2106    1.9464 H   0  0  0  0  0  0  0  0  0  0  0  0
    0.7655   -0.7434    1.8908 H   0  0  0  0  0  0  0  0  0  0  0  0
   -0.4669   -1.4632    0.8540 H   0  0  0  0  0  0  0  0  0  0  0  0
   -2.4034   -0.6262    2.0022 H   0  0  0  0  0  0  0  0  0  0  0  0
   -2.3444    2.2392   -1.2082 H   0  0  0  0  0  0  0  0  0  0  0  0
    3.6377   -2.8986   -0.1993 H   0  0  0  0  0  0  0  0  0  0  0  0
    6.1221    0.5979   -0.4395 H   0  0  0  0  0  0  0  0  0  0  0  0
   -4.6031    1.5267   -1.8913 H   0  0  0  0  0  0  0  0  0  0  0  0
    5.1450    2.5125   -0.2722 H   0  0  0  0  0  0  0  0  0  0  0  0
    5.8245   -2.9507   -0.5044 H   0  0  0  0  0  0  0  0  0  0  0  0
   -4.2109   -1.8546    2.1711 H   0  0  0  0  0  0  0  0  0  0  0  0
   -5.6302   -1.1052   -2.6176 H   0  0  0  0  0  0  0  0  0  0  0  0
   -7.1715   -1.5954   -1.8803 H   0  0  0  0  0  0  0  0  0  0  0  0
   -5.6558   -2.3122   -1.2903 H   0  0  0  0  0  0  0  0  0  0  0  0
  1  9  1  0  0  0  0
  1 13  1  0  0  0  0
  2 10  2  0  0  0  0
  3 14  1  0  0  0  0
  3 34  1  0  0  0  0
  4 19  1  0  0  0  0
  4 35  1  0  0  0  0
  5 22  1  0  0  0  0
  5 23  1  0  0  0  0
  6 20  1  0  0  0  0
  6 36  1  0  0  0  0
  7  8  1  0  0  0  0
  7  9  1  0  0  0  0
  7 10  1  0  0  0  0
  7 24  1  0  0  0  0
  8 12  1  0  0  0  0
  8 25  1  0  0  0  0
  8 26  1  0  0  0  0
  9 27  1  0  0  0  0
  9 28  1  0  0  0  0
 10 11  1  0  0  0  0
 11 13  1  0  0  0  0
 11 14  2  0  0  0  0
 12 15  2  0  0  0  0
 12 16  1  0  0  0  0
 13 17  2  0  0  0  0
 14 18  1  0  0  0  0
 15 20  1  0  0  0  0
 15 29  1  0  0  0  0
 16 21  2  0  0  0  0
 16 30  1  0  0  0  0
 17 19  1  0  0  0  0
 17 31  1  0  0  0  0
 18 19  2  0  0  0  0
 18 32  1  0  0  0  0
 20 22  2  0  0  0  0
 21 22  1  0  0  0  0
 21 33  1  0  0  0  0
 23 37  1  0  0  0  0
 23 38  1  0  0  0  0
 23 39  1  0  0  0  0
M  END
> <PUBCHEM_COMPOUND_CID>
404571

> <PUBCHEM_CONFORMER_RMSD>
0.6

> <PUBCHEM_CONFORMER_DIVERSEORDER>
7
49
22
41
10
19
55
51
34
42
45
15
13
24
48
39
64
20
12
44
5
23
38
2
35
56
6
14
43
31
18
11
29
37
16
21
52
59
40
58
66
32
1
33
50
65
8
4
17
57
30
46
63
53
62
47
61
36
60
3
54
9
25
27
26
28

> <PUBCHEM_MMFF94_PARTIAL_CHARGES>
31
1 -0.36
10 0.42
11 0.09
12 -0.14
13 0.08
14 0.08
15 -0.15
16 -0.15
17 -0.15
18 -0.15
19 0.08
2 -0.57
20 0.08
21 -0.15
22 0.08
23 0.28
29 0.15
3 -0.53
30 0.15
31 0.15
32 0.15
33 0.15
34 0.45
35 0.45
36 0.45
4 -0.53
5 -0.36
6 -0.53
7 0.06
8 0.14
9 0.28

> <PUBCHEM_EFFECTIVE_ROTOR_COUNT>
3.6

> <PUBCHEM_PHARMACOPHORE_FEATURES>
9
1 1 acceptor
1 2 acceptor
1 3 donor
1 4 donor
1 5 acceptor
1 6 donor
6 1 7 9 10 11 13 rings
6 11 13 14 17 18 19 rings
6 12 15 16 20 21 22 rings

> <PUBCHEM_HEAVY_ATOM_COUNT>
23

> <PUBCHEM_ATOM_DEF_STEREO_COUNT>
0

> <PUBCHEM_ATOM_UDEF_STEREO_COUNT>
1

> <PUBCHEM_BOND_DEF_STEREO_COUNT>
0

> <PUBCHEM_BOND_UDEF_STEREO_COUNT>
0

> <PUBCHEM_ISOTOPIC_ATOM_COUNT>
0

> <PUBCHEM_COMPONENT_COUNT>
1

> <PUBCHEM_CACTVS_TAUTO_COUNT>
249

> <PUBCHEM_CONFORMER_ID>
00062C5B00000007

> <PUBCHEM_MMFF94_ENERGY>
77.2821

> <PUBCHEM_FEATURE_SELFOVERLAP>
45.702

> <PUBCHEM_SHAPE_FINGERPRINT>
10693767 8 18268989800578352646
12236239 1 17775286053637414728
12596602 18 16773793714387808459
13533116 47 18273215322273278208
13668630 136 17917713491391112638
13862211 1 18339642227424479738
14251764 18 9295279552451846843
14576447 43 18341609283258345206
15183329 4 17531243924619320195
15188451 53 15410599420785209973
15196674 1 18409172095194596000
15475509 84 11098392860119100966
15788980 27 18131352985971880017
15961568 22 16878513457113376068
17349148 13 17846788394609082482
17844677 252 18341618091967640261
17857418 61 18202281411659239855
17870717 6 17821450158201155819
1813 80 15339121242666540408
18222031 100 18341889658918516218
18681886 176 18271800203832507810
19489759 90 17022624169410483715
19784866 170 10519983751266442154
200 152 18273213088905887649
20028762 73 18059572464881155350
20645477 70 18412544284635379510
21033650 10 16588306012466773933
21267235 1 18341060631451512378
21637258 2 17131823296937759597
21682296 61 18199476471877434646
221357 26 18408036299794042077
221490 88 18335147521845769250
22393880 68 18040711437774313923
23402539 116 17988082188366230096
23522609 53 17843992401360680553
23559900 14 18114461262155009849
2871803 45 18260265235202104297
29717793 49 18201722825197393076
3004659 81 18334011666494923544
314194 84 18273500078214528435
34797466 226 16805902769475124060
351380 3 17704348879586788031
4015057 19 18338236067721272617
439807 62 18200868608844906023
46194498 28 17895191155506375781
465052 167 17846779623995753148
5104073 3 18411421674389026624
5283173 99 17968090868193041821
57724786 102 8286200573779654295
7495541 125 17275098453244255146
9709674 26 18115315599711029019

> <PUBCHEM_SHAPE_MULTIPOLES>
438.11
14.7
2.1
1.08
4.8
0.23
0.01
-6.04
4.49
-1.7
0.15
1.7
-0.26
0.23

> <PUBCHEM_SHAPE_SELFOVERLAP>
961.244

> <PUBCHEM_SHAPE_VOLUME>
235.9

> <PUBCHEM_COORDINATE_TYPE>
2
5
10

$$$$
