167555
  -OEChem-08312003113D

 75 80  0     1  0  0  0  0  0999 V2000
   -3.2583    0.9309    0.1659 O   0  0  0  0  0  0  0  0  0  0  0  0
   -0.0519   -3.2030    0.1320 O   0  0  0  0  0  0  0  0  0  0  0  0
   -4.9715   -0.1463   -1.0829 O   0  0  0  0  0  0  0  0  0  0  0  0
    8.1584    0.5924    0.0093 O   0  0  0  0  0  0  0  0  0  0  0  0
   -0.4943   -0.7921    0.0186 C   0  0  1  0  0  0  0  0  0  0  0  0
    0.1569    0.5039   -0.5321 C   0  0  2  0  0  0  0  0  0  0  0  0
   -1.8506   -0.7414   -0.7570 C   0  0  2  0  0  0  0  0  0  0  0  0
    1.5375    0.7961    0.0677 C   0  0  1  0  0  0  0  0  0  0  0  0
    2.4858   -0.4019   -0.2585 C   0  0  1  0  0  0  0  0  0  0  0  0
   -2.1996    0.7601   -0.7731 C   0  0  2  0  0  0  0  0  0  0  0  0
    3.9444   -0.1612    0.2818 C   0  0  2  0  0  0  0  0  0  0  0  0
   -0.9468    1.5434   -0.3732 C   0  0  0  0  0  0  0  0  0  0  0  0
    0.4298   -1.9633   -0.3754 C   0  0  1  0  0  0  0  0  0  0  0  0
    1.8628   -1.7581    0.1553 C   0  0  0  0  0  0  0  0  0  0  0  0
   -3.0936   -1.4073   -0.1542 C   0  0  1  0  0  0  0  0  0  0  0  0
    4.4512    1.1850   -0.3297 C   0  0  1  0  0  0  0  0  0  0  0  0
    2.1121    2.1191   -0.4596 C   0  0  0  0  0  0  0  0  0  0  0  0
   -4.0915   -0.2388    0.0480 C   0  0  1  0  0  0  0  0  0  0  0  0
    3.5406    2.3669    0.0203 C   0  0  0  0  0  0  0  0  0  0  0  0
   -0.6952   -0.7600    1.5595 C   0  0  0  0  0  0  0  0  0  0  0  0
    4.9015   -1.2885   -0.2013 C   0  0  0  0  0  0  0  0  0  0  0  0
    5.9151    1.4841    0.0165 C   0  0  0  0  0  0  0  0  0  0  0  0
    3.9608   -0.1382    1.8317 C   0  0  0  0  0  0  0  0  0  0  0  0
   -3.6340   -2.5384   -1.0291 C   0  0  0  0  0  0  0  0  0  0  0  0
    6.3763   -1.0067    0.0949 C   0  0  0  0  0  0  0  0  0  0  0  0
   -4.9076   -0.4195    1.3338 C   0  0  0  0  0  0  0  0  0  0  0  0
    6.8295    0.3477   -0.4398 C   0  0  2  0  0  0  0  0  0  0  0  0
   -5.9564    0.6791    1.4895 C   0  0  0  0  0  0  0  0  0  0  0  0
   -5.9049    0.9302   -1.0007 C   0  0  0  0  0  0  0  0  0  0  0  0
   -6.8089    0.7845    0.2231 C   0  0  2  0  0  0  0  0  0  0  0  0
   -7.7976    1.9413    0.3187 C   0  0  0  0  0  0  0  0  0  0  0  0
    0.3081    0.3802   -1.6181 H   0  0  0  0  0  0  0  0  0  0  0  0
   -1.6795   -1.0721   -1.7903 H   0  0  0  0  0  0  0  0  0  0  0  0
    1.4362    0.9036    1.1518 H   0  0  0  0  0  0  0  0  0  0  0  0
    2.5666   -0.4434   -1.3566 H   0  0  0  0  0  0  0  0  0  0  0  0
   -2.5550    1.0692   -1.7638 H   0  0  0  0  0  0  0  0  0  0  0  0
   -1.0113    1.9330    0.6483 H   0  0  0  0  0  0  0  0  0  0  0  0
   -0.7910    2.3963   -1.0421 H   0  0  0  0  0  0  0  0  0  0  0  0
    0.4667   -2.0546   -1.4683 H   0  0  0  0  0  0  0  0  0  0  0  0
    2.4792   -2.5829   -0.2217 H   0  0  0  0  0  0  0  0  0  0  0  0
    1.8671   -1.8752    1.2442 H   0  0  0  0  0  0  0  0  0  0  0  0
   -2.8526   -1.8503    0.8152 H   0  0  0  0  0  0  0  0  0  0  0  0
    4.4143    1.0805   -1.4256 H   0  0  0  0  0  0  0  0  0  0  0  0
    1.4831    2.9576   -0.1387 H   0  0  0  0  0  0  0  0  0  0  0  0
    2.0988    2.1176   -1.5571 H   0  0  0  0  0  0  0  0  0  0  0  0
    3.9170    3.2802   -0.4565 H   0  0  0  0  0  0  0  0  0  0  0  0
    3.5460    2.5572    1.0996 H   0  0  0  0  0  0  0  0  0  0  0  0
   -1.4022    0.0127    1.8752 H   0  0  0  0  0  0  0  0  0  0  0  0
   -1.0728   -1.7162    1.9362 H   0  0  0  0  0  0  0  0  0  0  0  0
    0.2355   -0.5733    2.1014 H   0  0  0  0  0  0  0  0  0  0  0  0
    4.7853   -1.4263   -1.2844 H   0  0  0  0  0  0  0  0  0  0  0  0
    4.6381   -2.2452    0.2645 H   0  0  0  0  0  0  0  0  0  0  0  0
    6.2374    2.4120   -0.4738 H   0  0  0  0  0  0  0  0  0  0  0  0
    6.0405    1.6727    1.0893 H   0  0  0  0  0  0  0  0  0  0  0  0
    3.2614    0.5890    2.2513 H   0  0  0  0  0  0  0  0  0  0  0  0
    3.6991   -1.1176    2.2455 H   0  0  0  0  0  0  0  0  0  0  0  0
    4.9462    0.1123    2.2344 H   0  0  0  0  0  0  0  0  0  0  0  0
   -3.8393   -2.2044   -2.0515 H   0  0  0  0  0  0  0  0  0  0  0  0
   -2.9028   -3.3516   -1.0899 H   0  0  0  0  0  0  0  0  0  0  0  0
   -4.5580   -2.9485   -0.6090 H   0  0  0  0  0  0  0  0  0  0  0  0
    6.5667   -1.0709    1.1731 H   0  0  0  0  0  0  0  0  0  0  0  0
    6.9963   -1.7965   -0.3480 H   0  0  0  0  0  0  0  0  0  0  0  0
   -4.2518   -0.4080    2.2123 H   0  0  0  0  0  0  0  0  0  0  0  0
   -5.4237   -1.3874    1.3105 H   0  0  0  0  0  0  0  0  0  0  0  0
    6.8552    0.3172   -1.5352 H   0  0  0  0  0  0  0  0  0  0  0  0
    0.5513   -3.9018   -0.1731 H   0  0  0  0  0  0  0  0  0  0  0  0
   -6.5902    0.4624    2.3574 H   0  0  0  0  0  0  0  0  0  0  0  0
   -5.4578    1.6359    1.6902 H   0  0  0  0  0  0  0  0  0  0  0  0
   -6.5066    0.9079   -1.9156 H   0  0  0  0  0  0  0  0  0  0  0  0
   -5.3635    1.8838   -0.9946 H   0  0  0  0  0  0  0  0  0  0  0  0
   -7.3744   -0.1515    0.1222 H   0  0  0  0  0  0  0  0  0  0  0  0
    8.1440    0.6383    0.9806 H   0  0  0  0  0  0  0  0  0  0  0  0
   -8.4568    1.8179    1.1844 H   0  0  0  0  0  0  0  0  0  0  0  0
   -7.2797    2.9009    0.4216 H   0  0  0  0  0  0  0  0  0  0  0  0
   -8.4255    1.9900   -0.5771 H   0  0  0  0  0  0  0  0  0  0  0  0
  1 10  1  0  0  0  0
  1 18  1  0  0  0  0
  2 13  1  0  0  0  0
  2 66  1  0  0  0  0
  3 18  1  0  0  0  0
  3 29  1  0  0  0  0
  4 27  1  0  0  0  0
  4 72  1  0  0  0  0
  5  6  1  0  0  0  0
  5  7  1  0  0  0  0
  5 13  1  0  0  0  0
  5 20  1  0  0  0  0
  6  8  1  0  0  0  0
  6 12  1  0  0  0  0
  6 32  1  0  0  0  0
  7 10  1  0  0  0  0
  7 15  1  0  0  0  0
  7 33  1  0  0  0  0
  8  9  1  0  0  0  0
  8 17  1  0  0  0  0
  8 34  1  0  0  0  0
  9 11  1  0  0  0  0
  9 14  1  0  0  0  0
  9 35  1  0  0  0  0
 10 12  1  0  0  0  0
 10 36  1  0  0  0  0
 11 16  1  0  0  0  0
 11 21  1  0  0  0  0
 11 23  1  0  0  0  0
 12 37  1  0  0  0  0
 12 38  1  0  0  0  0
 13 14  1  0  0  0  0
 13 39  1  0  0  0  0
 14 40  1  0  0  0  0
 14 41  1  0  0  0  0
 15 18  1  0  0  0  0
 15 24  1  0  0  0  0
 15 42  1  0  0  0  0
 16 19  1  0  0  0  0
 16 22  1  0  0  0  0
 16 43  1  0  0  0  0
 17 19  1  0  0  0  0
 17 44  1  0  0  0  0
 17 45  1  0  0  0  0
 18 26  1  0  0  0  0
 19 46  1  0  0  0  0
 19 47  1  0  0  0  0
 20 48  1  0  0  0  0
 20 49  1  0  0  0  0
 20 50  1  0  0  0  0
 21 25  1  0  0  0  0
 21 51  1  0  0  0  0
 21 52  1  0  0  0  0
 22 27  1  0  0  0  0
 22 53  1  0  0  0  0
 22 54  1  0  0  0  0
 23 55  1  0  0  0  0
 23 56  1  0  0  0  0
 23 57  1  0  0  0  0
 24 58  1  0  0  0  0
 24 59  1  0  0  0  0
 24 60  1  0  0  0  0
 25 27  1  0  0  0  0
 25 61  1  0  0  0  0
 25 62  1  0  0  0  0
 26 28  1  0  0  0  0
 26 63  1  0  0  0  0
 26 64  1  0  0  0  0
 27 65  1  0  0  0  0
 28 30  1  0  0  0  0
 28 67  1  0  0  0  0
 28 68  1  0  0  0  0
 29 30  1  0  0  0  0
 29 69  1  0  0  0  0
 29 70  1  0  0  0  0
 30 31  1  0  0  0  0
 30 71  1  0  0  0  0
 31 73  1  0  0  0  0
 31 74  1  0  0  0  0
 31 75  1  0  0  0  0
M  END
> <PUBCHEM_COMPOUND_CID>
167555

> <PUBCHEM_CONFORMER_RMSD>
0.8

> <PUBCHEM_CONFORMER_DIVERSEORDER>
1

> <PUBCHEM_MMFF94_PARTIAL_CHARGES>
11
1 -0.56
10 0.28
13 0.28
18 0.56
2 -0.68
27 0.28
29 0.28
3 -0.56
4 -0.68
66 0.4
72 0.4

> <PUBCHEM_EFFECTIVE_ROTOR_COUNT>
3.2

> <PUBCHEM_PHARMACOPHORE_FEATURES>
12
1 1 acceptor
1 2 acceptor
1 2 donor
1 3 acceptor
1 4 acceptor
1 4 donor
5 1 7 10 15 18 rings
5 5 6 7 10 12 rings
6 11 16 21 22 25 27 rings
6 3 18 26 28 29 30 rings
6 5 6 8 9 13 14 rings
6 8 9 11 16 17 19 rings

> <PUBCHEM_HEAVY_ATOM_COUNT>
31

> <PUBCHEM_ATOM_DEF_STEREO_COUNT>
13

> <PUBCHEM_ATOM_UDEF_STEREO_COUNT>
0

> <PUBCHEM_BOND_DEF_STEREO_COUNT>
0

> <PUBCHEM_BOND_UDEF_STEREO_COUNT>
0

> <PUBCHEM_ISOTOPIC_ATOM_COUNT>
0

> <PUBCHEM_COMPONENT_COUNT>
1

> <PUBCHEM_CACTVS_TAUTO_COUNT>
1

> <PUBCHEM_CONFORMER_ID>
00028E8300000001

> <PUBCHEM_MMFF94_ENERGY>
115.8419

> <PUBCHEM_FEATURE_SELFOVERLAP>
61.329

> <PUBCHEM_SHAPE_FINGERPRINT>
10 15 18114184125305842593
106641 1 13334742349311182732
10906281 52 18335997427254508006
11045977 3 17894917351472559049
11089746 13 17203888565670938217
11135926 11 18335411348987081255
11315181 36 16917067785064252489
11456790 92 18335420136885600336
11578080 2 17415547981939602760
12236239 1 17917710210062173007
12403259 415 17967523575884993300
12788726 201 18410290272740068184
12838862 33 18338218414883394221
13533116 47 17274544226907878374
13583140 156 16443607108328116407
13782708 43 13696129762377662392
13914758 101 15841559535051007602
14251764 18 18408323306398148255
14341114 176 18334297565267012508
14394314 77 18339361976028684364
14790565 3 18337393854361531741
14849402 71 18341055219587744952
14856354 85 18059859493265487751
15142383 8 18186800257754310300
15183329 4 18343302570025378852
15196674 1 18338232777438479566
15361156 5 18187089506642620692
15461852 350 16630240385802571221
1577012 14 18341608226485465414
15849732 13 18040437694076320548
16087824 20 18409731725175844380
18335252 114 18341887472479794077
18608769 82 17312827099328960954
18681886 176 18271235118589185394
19489759 90 16272211890522377961
20105231 36 18114474391780545146
21033648 29 18338225076989476968
21130935 74 18271241720719284442
21150785 3 12607401083710825577
21236236 1 18340205305868496735
21267235 1 18335424526869300390
21792934 111 18339349778911615384
23522609 53 18193303937984729996
23559900 14 18341606075107711736
23569917 315 18272373096630958543
23576562 1 16055737914720745184
24771293 8 18266729368117609956
249057 3 18342458157516042293
2838139 119 18202002136191516617
3004659 81 18333448756013917964
3178227 256 18187653496173299896
335352 9 18410572902872512084
34934 24 18410289199551813271
350125 39 18409166601863047484
3633792 109 18059861640912704808
3680242 22 18334568023573591970
38695281 34 18201721743172168135
4073 2 18115310106637956306
4093350 32 17346041073614256422
4340502 62 16298385760510898506
4408954 64 14855589152048950011
5104073 3 18336822116736049363
57724786 102 17749677418736349900
59755656 215 18410575050403600214
59755656 520 17385439951340195499
6009941 240 17603310345712223745
6086070 43 17346590915712209339
6328613 192 18272091620941265785
7226269 152 18131072628124639953

> <PUBCHEM_SHAPE_MULTIPOLES>
614.49
19.04
2.34
1.12
0.79
0.68
0.37
-7.44
1.38
0.13
-0.32
0.83
0.1
-0.58

> <PUBCHEM_SHAPE_SELFOVERLAP>
1318.712

> <PUBCHEM_SHAPE_VOLUME>
338.9

> <PUBCHEM_COORDINATE_TYPE>
2
5
10

$$$$
