52931465
  -OEChem-08312003223D

 81 85  0     1  0  0  0  0  0999 V2000
    3.2858    0.7341    0.2411 O   0  0  0  0  0  0  0  0  0  0  0  0
   -3.1820   -3.2658   -0.7997 O   0  0  0  0  0  0  0  0  0  0  0  0
   -7.9140   -1.3240    0.0723 O   0  0  0  0  0  0  0  0  0  0  0  0
    3.6838   -1.2930   -0.8269 O   0  0  0  0  0  0  0  0  0  0  0  0
    5.8285    0.4522    1.6153 O   0  0  0  0  0  0  0  0  0  0  0  0
   -0.1350    0.5647   -0.5333 C   0  0  2  0  0  0  0  0  0  0  0  0
    0.2106    1.9289    0.1029 C   0  0  1  0  0  0  0  0  0  0  0  0
   -1.4010   -0.0662    0.0577 C   0  0  1  0  0  0  0  0  0  0  0  0
   -2.6013    0.9044   -0.1842 C   0  0  1  0  0  0  0  0  0  0  0  0
   -3.9564    0.3078    0.3516 C   0  0  2  0  0  0  0  0  0  0  0  0
    1.5259    2.2389   -0.6613 C   0  0  2  0  0  0  0  0  0  0  0  0
   -4.1686   -1.0795   -0.3414 C   0  0  1  0  0  0  0  0  0  0  0  0
   -0.9477    2.8916   -0.1998 C   0  0  0  0  0  0  0  0  0  0  0  0
   -2.2938    2.3435    0.3084 C   0  0  0  0  0  0  0  0  0  0  0  0
    1.1795   -0.2062   -0.4596 C   0  0  0  0  0  0  0  0  0  0  0  0
   -1.6763   -1.4456   -0.5514 C   0  0  0  0  0  0  0  0  0  0  0  0
    2.2545    0.8681   -0.7247 C   0  0  2  0  0  0  0  0  0  0  0  0
   -3.0015   -2.0467   -0.0802 C   0  0  2  0  0  0  0  0  0  0  0  0
   -5.1482    1.2262   -0.0436 C   0  0  0  0  0  0  0  0  0  0  0  0
    0.4490    1.8733    1.6325 C   0  0  0  0  0  0  0  0  0  0  0  0
   -5.5322   -1.7067   -0.0034 C   0  0  0  0  0  0  0  0  0  0  0  0
   -3.9294    0.1823    1.8969 C   0  0  0  0  0  0  0  0  0  0  0  0
    2.3546    3.3976   -0.1227 C   0  0  0  0  0  0  0  0  0  0  0  0
   -6.5182    0.6139    0.2513 C   0  0  0  0  0  0  0  0  0  0  0  0
   -6.6801   -0.7684   -0.3711 C   0  0  2  0  0  0  0  0  0  0  0  0
    3.6095    3.6164   -0.9484 C   0  0  0  0  0  0  0  0  0  0  0  0
    4.3124   -0.1664   -0.2028 C   0  0  2  0  0  0  0  0  0  0  0  0
    5.0610   -0.6157    1.0661 C   0  0  1  0  0  0  0  0  0  0  0  0
    5.1933    0.5986   -1.1985 C   0  0  0  0  0  0  0  0  0  0  0  0
    5.9919   -1.7976    0.8036 C   0  0  0  0  0  0  0  0  0  0  0  0
    5.2814   -2.9279    0.0558 C   0  0  2  0  0  0  0  0  0  0  0  0
    4.5634   -2.3624   -1.1709 C   0  0  0  0  0  0  0  0  0  0  0  0
    4.3009   -3.6706    0.9685 C   0  0  0  0  0  0  0  0  0  0  0  0
   -0.3353    0.7223   -1.6067 H   0  0  0  0  0  0  0  0  0  0  0  0
   -1.2528   -0.2126    1.1321 H   0  0  0  0  0  0  0  0  0  0  0  0
   -2.7136    0.9913   -1.2769 H   0  0  0  0  0  0  0  0  0  0  0  0
    1.2426    2.4944   -1.6947 H   0  0  0  0  0  0  0  0  0  0  0  0
   -4.1924   -0.9087   -1.4297 H   0  0  0  0  0  0  0  0  0  0  0  0
   -0.7610    3.8746    0.2488 H   0  0  0  0  0  0  0  0  0  0  0  0
   -1.0269    3.0572   -1.2821 H   0  0  0  0  0  0  0  0  0  0  0  0
   -2.3049    2.3841    1.4017 H   0  0  0  0  0  0  0  0  0  0  0  0
   -3.0776    3.0290   -0.0327 H   0  0  0  0  0  0  0  0  0  0  0  0
    1.3092   -0.6879    0.5166 H   0  0  0  0  0  0  0  0  0  0  0  0
    1.2024   -0.9912   -1.2233 H   0  0  0  0  0  0  0  0  0  0  0  0
   -1.6767   -1.3803   -1.6483 H   0  0  0  0  0  0  0  0  0  0  0  0
   -0.8626   -2.1386   -0.3026 H   0  0  0  0  0  0  0  0  0  0  0  0
    2.6266    0.7609   -1.7500 H   0  0  0  0  0  0  0  0  0  0  0  0
   -2.9478   -2.3042    0.9832 H   0  0  0  0  0  0  0  0  0  0  0  0
   -5.0931    1.4532   -1.1165 H   0  0  0  0  0  0  0  0  0  0  0  0
   -5.0865    2.1865    0.4816 H   0  0  0  0  0  0  0  0  0  0  0  0
    1.3029    1.2458    1.9035 H   0  0  0  0  0  0  0  0  0  0  0  0
   -0.4125    1.4836    2.1811 H   0  0  0  0  0  0  0  0  0  0  0  0
    0.6415    2.8757    2.0316 H   0  0  0  0  0  0  0  0  0  0  0  0
   -5.5905   -1.9858    1.0553 H   0  0  0  0  0  0  0  0  0  0  0  0
   -5.6662   -2.6479   -0.5518 H   0  0  0  0  0  0  0  0  0  0  0  0
   -3.8798    1.1666    2.3741 H   0  0  0  0  0  0  0  0  0  0  0  0
   -4.8252   -0.3055    2.2911 H   0  0  0  0  0  0  0  0  0  0  0  0
   -3.0772   -0.3977    2.2592 H   0  0  0  0  0  0  0  0  0  0  0  0
    1.7458    4.3092   -0.1575 H   0  0  0  0  0  0  0  0  0  0  0  0
    2.6420    3.2513    0.9238 H   0  0  0  0  0  0  0  0  0  0  0  0
   -7.3059    1.2770   -0.1280 H   0  0  0  0  0  0  0  0  0  0  0  0
   -6.6907    0.5609    1.3332 H   0  0  0  0  0  0  0  0  0  0  0  0
   -6.7366   -0.6663   -1.4616 H   0  0  0  0  0  0  0  0  0  0  0  0
   -2.4398   -3.8528   -0.5756 H   0  0  0  0  0  0  0  0  0  0  0  0
    4.4545    3.0960   -0.5040 H   0  0  0  0  0  0  0  0  0  0  0  0
    3.8744    4.6797   -0.9367 H   0  0  0  0  0  0  0  0  0  0  0  0
    3.4926    3.3161   -1.9935 H   0  0  0  0  0  0  0  0  0  0  0  0
   -8.0079   -2.1982   -0.3430 H   0  0  0  0  0  0  0  0  0  0  0  0
    4.3262   -0.8983    1.8303 H   0  0  0  0  0  0  0  0  0  0  0  0
    4.6494    0.9325   -2.0857 H   0  0  0  0  0  0  0  0  0  0  0  0
    6.0136   -0.0238   -1.5694 H   0  0  0  0  0  0  0  0  0  0  0  0
    5.6574    1.4733   -0.7381 H   0  0  0  0  0  0  0  0  0  0  0  0
    6.8554   -1.4581    0.2164 H   0  0  0  0  0  0  0  0  0  0  0  0
    6.4141   -2.1606    1.7490 H   0  0  0  0  0  0  0  0  0  0  0  0
    6.0322   -3.6540   -0.2794 H   0  0  0  0  0  0  0  0  0  0  0  0
    3.9570   -3.1422   -1.6449 H   0  0  0  0  0  0  0  0  0  0  0  0
    5.2800   -2.0287   -1.9284 H   0  0  0  0  0  0  0  0  0  0  0  0
    6.2548    0.1228    2.4248 H   0  0  0  0  0  0  0  0  0  0  0  0
    3.4813   -3.0286    1.3063 H   0  0  0  0  0  0  0  0  0  0  0  0
    4.8146   -4.0598    1.8538 H   0  0  0  0  0  0  0  0  0  0  0  0
    3.8580   -4.5221    0.4406 H   0  0  0  0  0  0  0  0  0  0  0  0
  1 17  1  0  0  0  0
  1 27  1  0  0  0  0
  2 18  1  0  0  0  0
  2 64  1  0  0  0  0
  3 25  1  0  0  0  0
  3 68  1  0  0  0  0
  4 27  1  0  0  0  0
  4 32  1  0  0  0  0
  5 28  1  0  0  0  0
  5 78  1  0  0  0  0
  6  7  1  0  0  0  0
  6  8  1  0  0  0  0
  6 15  1  0  0  0  0
  6 34  1  0  0  0  0
  7 11  1  0  0  0  0
  7 13  1  0  0  0  0
  7 20  1  0  0  0  0
  8  9  1  0  0  0  0
  8 16  1  0  0  0  0
  8 35  1  0  0  0  0
  9 10  1  0  0  0  0
  9 14  1  0  0  0  0
  9 36  1  0  0  0  0
 10 12  1  0  0  0  0
 10 19  1  0  0  0  0
 10 22  1  0  0  0  0
 11 17  1  0  0  0  0
 11 23  1  0  0  0  0
 11 37  1  0  0  0  0
 12 18  1  0  0  0  0
 12 21  1  0  0  0  0
 12 38  1  0  0  0  0
 13 14  1  0  0  0  0
 13 39  1  0  0  0  0
 13 40  1  0  0  0  0
 14 41  1  0  0  0  0
 14 42  1  0  0  0  0
 15 17  1  0  0  0  0
 15 43  1  0  0  0  0
 15 44  1  0  0  0  0
 16 18  1  0  0  0  0
 16 45  1  0  0  0  0
 16 46  1  0  0  0  0
 17 47  1  0  0  0  0
 18 48  1  0  0  0  0
 19 24  1  0  0  0  0
 19 49  1  0  0  0  0
 19 50  1  0  0  0  0
 20 51  1  0  0  0  0
 20 52  1  0  0  0  0
 20 53  1  0  0  0  0
 21 25  1  0  0  0  0
 21 54  1  0  0  0  0
 21 55  1  0  0  0  0
 22 56  1  0  0  0  0
 22 57  1  0  0  0  0
 22 58  1  0  0  0  0
 23 26  1  0  0  0  0
 23 59  1  0  0  0  0
 23 60  1  0  0  0  0
 24 25  1  0  0  0  0
 24 61  1  0  0  0  0
 24 62  1  0  0  0  0
 25 63  1  0  0  0  0
 26 65  1  0  0  0  0
 26 66  1  0  0  0  0
 26 67  1  0  0  0  0
 27 28  1  0  0  0  0
 27 29  1  0  0  0  0
 28 30  1  0  0  0  0
 28 69  1  0  0  0  0
 29 70  1  0  0  0  0
 29 71  1  0  0  0  0
 29 72  1  0  0  0  0
 30 31  1  0  0  0  0
 30 73  1  0  0  0  0
 30 74  1  0  0  0  0
 31 32  1  0  0  0  0
 31 33  1  0  0  0  0
 31 75  1  0  0  0  0
 32 76  1  0  0  0  0
 32 77  1  0  0  0  0
 33 79  1  0  0  0  0
 33 80  1  0  0  0  0
 33 81  1  0  0  0  0
M  END
> <PUBCHEM_COMPOUND_CID>
52931465

> <PUBCHEM_CONFORMER_RMSD>
0.8

> <PUBCHEM_CONFORMER_DIVERSEORDER>
1
2
3
4

> <PUBCHEM_MMFF94_PARTIAL_CHARGES>
14
1 -0.56
17 0.28
18 0.28
2 -0.68
25 0.28
27 0.56
28 0.28
3 -0.68
32 0.28
4 -0.56
5 -0.68
64 0.4
68 0.4
78 0.4

> <PUBCHEM_EFFECTIVE_ROTOR_COUNT>
6.4

> <PUBCHEM_PHARMACOPHORE_FEATURES>
14
1 1 acceptor
1 2 acceptor
1 2 donor
1 26 hydrophobe
1 3 acceptor
1 3 donor
1 4 acceptor
1 5 acceptor
1 5 donor
5 6 7 11 15 17 rings
6 10 12 19 21 24 25 rings
6 4 27 28 30 31 32 rings
6 6 7 8 9 13 14 rings
6 8 9 10 12 16 18 rings

> <PUBCHEM_HEAVY_ATOM_COUNT>
33

> <PUBCHEM_ATOM_DEF_STEREO_COUNT>
12

> <PUBCHEM_ATOM_UDEF_STEREO_COUNT>
1

> <PUBCHEM_BOND_DEF_STEREO_COUNT>
0

> <PUBCHEM_BOND_UDEF_STEREO_COUNT>
0

> <PUBCHEM_ISOTOPIC_ATOM_COUNT>
0

> <PUBCHEM_COMPONENT_COUNT>
1

> <PUBCHEM_CACTVS_TAUTO_COUNT>
1

> <PUBCHEM_CONFORMER_ID>
0327AB8900000001

> <PUBCHEM_MMFF94_ENERGY>
124.2242

> <PUBCHEM_FEATURE_SELFOVERLAP>
71.185

> <PUBCHEM_SHAPE_FINGERPRINT>
10554248 39 18262788683830189685
10939801 23 18342736364676638302
11135609 12 18410001152557818840
11135926 11 18192986252217686540
11456790 92 18202014235646562345
117089 54 18267031548715248050
11756154 67 18123192304029983206
11796584 16 17167867477843808512
11963148 33 17764304338307316055
12107183 9 18340495443857352329
12166972 35 18272653450346046937
12422481 6 18058461901927102751
12516196 113 18273494563486783953
131258 43 17344939389841025764
13533116 47 18409731789357020004
1361 2 18335701616046956330
13782708 43 17967816059390241395
13811026 1 18342171125595241343
14068700 675 18339925922245154808
14347332 77 18334857165045904693
14394314 77 18340487755755103345
15001296 14 18187641448653241939
15183329 4 18412269454120729903
15250474 111 18198335358790351966
15927050 60 18051978314298408750
17349148 13 17918000455388755117
17857418 61 18412545422384968519
1813 80 17821731615718539892
1979834 28 17560805403187588414
19958102 18 18259977172415650423
20028762 73 18343021077373693783
20567600 234 15626218039514931176
21130935 74 18272933791367118611
21703447 108 17340110553123957763
21859007 373 18042950018117292117
23522609 53 18121816917187832637
23559900 14 18341891930471237240
3004659 81 18336833073451153492
335352 9 18411983564208107901
3383291 50 18408323302868975539
34797466 226 16081371907535838517
350125 39 18410858763391133485
3680242 22 18411990130479717707
376196 1 14638566473369932764
397830 11 12679170661768668021
4073 2 18044099179038683066
4340502 62 13973968696710551877
463206 1 18333453131942605834
5104073 3 18270408307852944593
513202 73 18187087222453696621
6138700 20 18409167676243031867
70251023 43 18333731312273101504

> <PUBCHEM_SHAPE_MULTIPOLES>
649.78
16.92
4.01
1.17
9.96
0.21
-0.36
-10.77
-1.34
-4.1
0.35
-0.87
0.02
-1.31

> <PUBCHEM_SHAPE_SELFOVERLAP>
1368.541

> <PUBCHEM_SHAPE_VOLUME>
362

> <PUBCHEM_COORDINATE_TYPE>
2
5
10

$$$$
