44149635
  -OEChem-08312002332D

195206  0     1  0  0  0  0  0999 V2000
   16.6844    5.1032    0.0000 O   0  0  0  0  0  0  0  0  0  0  0  0
   18.1314    3.7437    0.0000 O   0  0  0  0  0  0  0  0  0  0  0  0
    9.4242    1.9463    0.0000 O   0  0  0  0  0  0  0  0  0  0  0  0
   10.1902    0.3035    0.0000 O   0  0  0  0  0  0  0  0  0  0  0  0
    8.5582   -0.5537    0.0000 O   0  0  0  0  0  0  0  0  0  0  0  0
    6.8261    0.4463    0.0000 O   0  0  0  0  0  0  0  0  0  0  0  0
    7.0494    2.7124    0.0000 O   0  0  0  0  0  0  0  0  0  0  0  0
   11.6905   -0.5621    0.0000 O   0  0  0  0  0  0  0  0  0  0  0  0
    6.8261   -0.5537    0.0000 O   0  0  0  0  0  0  0  0  0  0  0  0
    9.6715    3.7732    0.0000 O   0  0  0  0  0  0  0  0  0  0  0  0
    9.1908   -1.4288    0.0000 O   0  0  0  0  0  0  0  0  0  0  0  0
    5.1204    0.1457    0.0000 O   0  0  0  0  0  0  0  0  0  0  0  0
    8.5582   -2.5537    0.0000 O   0  0  0  0  0  0  0  0  0  0  0  0
    8.1627    4.0392    0.0000 O   0  0  0  0  0  0  0  0  0  0  0  0
   10.1914   -3.1606    0.0000 O   0  0  0  0  0  0  0  0  0  0  0  0
   12.1913   -3.1599    0.0000 O   0  0  0  0  0  0  0  0  0  0  0  0
    6.8261   -3.5537    0.0000 O   0  0  0  0  0  0  0  0  0  0  0  0
    6.2128    2.6392    0.0000 O   0  0  0  0  0  0  0  0  0  0  0  0
    5.5173    3.9980    0.0000 O   0  0  0  0  0  0  0  0  0  0  0  0
    5.0941   -2.5537    0.0000 O   0  0  0  0  0  0  0  0  0  0  0  0
   13.3641   -0.4426    0.0000 O   0  0  0  0  0  0  0  0  0  0  0  0
    4.5994    3.1000    0.0000 O   0  0  0  0  0  0  0  0  0  0  0  0
    5.8646    5.9676    0.0000 O   0  0  0  0  0  0  0  0  0  0  0  0
    3.0673    1.8144    0.0000 O   0  0  0  0  0  0  0  0  0  0  0  0
    7.6921   -4.0537    0.0000 O   0  0  0  0  0  0  0  0  0  0  0  0
    4.2280   -1.0537    0.0000 O   0  0  0  0  0  0  0  0  0  0  0  0
    7.7439    6.6516    0.0000 O   0  0  0  0  0  0  0  0  0  0  0  0
    2.4750    0.1868    0.0000 O   0  0  0  0  0  0  0  0  0  0  0  0
   10.4090   -3.8800    0.0000 O   0  0  0  0  0  0  0  0  0  0  0  0
   10.2902   -5.5537    0.0000 O   0  0  0  0  0  0  0  0  0  0  0  0
    8.5582   -6.5537    0.0000 O   0  0  0  0  0  0  0  0  0  0  0  0
   15.2373    3.0933    0.0000 C   0  0  1  0  0  0  0  0  0  0  0  0
   14.4738    3.7390    0.0000 C   0  0  3  0  0  0  0  0  0  0  0  0
   13.5328    3.4006    0.0000 C   0  0  3  0  0  0  0  0  0  0  0  0
   16.0810    3.6190    0.0000 C   0  0  2  0  0  0  0  0  0  0  0  0
   13.3553    2.4165    0.0000 C   0  0  3  0  0  0  0  0  0  0  0  0
   12.3807    2.0489    0.0000 C   0  0  2  0  0  0  0  0  0  0  0  0
   15.8434    4.5843    0.0000 C   0  0  2  0  0  0  0  0  0  0  0  0
   14.8521    4.6583    0.0000 C   0  0  0  0  0  0  0  0  0  0  0  0
   15.0599    2.1092    0.0000 C   0  0  0  0  0  0  0  0  0  0  0  0
   14.1189    1.7708    0.0000 C   0  0  0  0  0  0  0  0  0  0  0  0
   11.5802    2.7154    0.0000 C   0  0  3  0  0  0  0  0  0  0  0  0
   17.0668    3.5497    0.0000 C   0  0  1  0  0  0  0  0  0  0  0  0
   12.7479    4.0854    0.0000 C   0  0  0  0  0  0  0  0  0  0  0  0
   11.7650    3.7405    0.0000 C   0  0  0  0  0  0  0  0  0  0  0  0
   17.4389    4.4651    0.0000 C   0  0  3  0  0  0  0  0  0  0  0  0
   16.0009    2.4476    0.0000 C   0  0  0  0  0  0  0  0  0  0  0  0
   12.2129    0.9770    0.0000 C   0  0  0  0  0  0  0  0  0  0  0  0
   10.5564    2.3561    0.0000 C   0  0  0  0  0  0  0  0  0  0  0  0
   10.3639    1.2884    0.0000 C   0  0  3  0  0  0  0  0  0  0  0  0
   13.1492    1.4091    0.0000 C   0  0  0  0  0  0  0  0  0  0  0  0
   11.1977    0.5941    0.0000 C   0  0  0  0  0  0  0  0  0  0  0  0
   17.5956    2.7010    0.0000 C   0  0  0  0  0  0  0  0  0  0  0  0
   17.7174    5.4256    0.0000 C   0  0  0  0  0  0  0  0  0  0  0  0
    9.4242    0.9463    0.0000 C   0  0  1  0  0  0  0  0  0  0  0  0
   18.6884    5.6646    0.0000 C   0  0  0  0  0  0  0  0  0  0  0  0
   19.1024    3.9827    0.0000 C   0  0  0  0  0  0  0  0  0  0  0  0
   19.3809    4.9432    0.0000 C   0  0  3  0  0  0  0  0  0  0  0  0
    8.5582    0.4463    0.0000 C   0  0  1  0  0  0  0  0  0  0  0  0
    7.6921    0.9463    0.0000 C   0  0  2  0  0  0  0  0  0  0  0  0
    8.5582    2.4463    0.0000 C   0  0  2  0  0  0  0  0  0  0  0  0
    7.6921    1.9463    0.0000 C   0  0  2  0  0  0  0  0  0  0  0  0
   20.3520    5.1822    0.0000 C   0  0  0  0  0  0  0  0  0  0  0  0
   10.6904   -0.5624    0.0000 C   0  0  1  0  0  0  0  0  0  0  0  0
    8.7318    3.4311    0.0000 C   0  0  0  0  0  0  0  0  0  0  0  0
    7.6921   -1.0537    0.0000 C   0  0  2  0  0  0  0  0  0  0  0  0
   10.1908   -1.4285    0.0000 C   0  0  1  0  0  0  0  0  0  0  0  0
    5.8864    0.7884    0.0000 C   0  0  1  0  0  0  0  0  0  0  0  0
   10.6910   -2.2944    0.0000 C   0  0  2  0  0  0  0  0  0  0  0  0
    7.6921   -2.0537    0.0000 C   0  0  1  0  0  0  0  0  0  0  0  0
   12.1907   -1.4279    0.0000 C   0  0  1  0  0  0  0  0  0  0  0  0
    7.2230    3.6972    0.0000 C   0  0  2  0  0  0  0  0  0  0  0  0
   11.6910   -2.2941    0.0000 C   0  0  1  0  0  0  0  0  0  0  0  0
    6.8261   -2.5537    0.0000 C   0  0  2  0  0  0  0  0  0  0  0  0
    5.7128    1.7732    0.0000 C   0  0  1  0  0  0  0  0  0  0  0  0
    5.9601   -1.0537    0.0000 C   0  0  1  0  0  0  0  0  0  0  0  0
    6.4570    4.3400    0.0000 C   0  0  1  0  0  0  0  0  0  0  0  0
    5.9601   -2.0537    0.0000 C   0  0  1  0  0  0  0  0  0  0  0  0
   13.1908   -1.4276    0.0000 C   0  0  0  0  0  0  0  0  0  0  0  0
    4.7731    2.1152    0.0000 C   0  0  2  0  0  0  0  0  0  0  0  0
    4.1807    0.4876    0.0000 C   0  0  1  0  0  0  0  0  0  0  0  0
    6.6306    5.3248    0.0000 C   0  0  1  0  0  0  0  0  0  0  0  0
    4.0070    1.4724    0.0000 C   0  0  1  0  0  0  0  0  0  0  0  0
    8.3363    5.0240    0.0000 C   0  0  2  0  0  0  0  0  0  0  0  0
    5.0941   -0.5537    0.0000 C   0  0  0  0  0  0  0  0  0  0  0  0
    7.5703    5.6668    0.0000 C   0  0  2  0  0  0  0  0  0  0  0  0
    8.5582   -3.5537    0.0000 C   0  0  2  0  0  0  0  0  0  0  0  0
    3.4146   -0.1551    0.0000 C   0  0  0  0  0  0  0  0  0  0  0  0
    9.2760    5.3660    0.0000 C   0  0  0  0  0  0  0  0  0  0  0  0
    9.4242   -4.0537    0.0000 C   0  0  1  0  0  0  0  0  0  0  0  0
    9.4242   -5.0537    0.0000 C   0  0  2  0  0  0  0  0  0  0  0  0
    7.6921   -5.0537    0.0000 C   0  0  0  0  0  0  0  0  0  0  0  0
    8.5582   -5.5537    0.0000 C   0  0  1  0  0  0  0  0  0  0  0  0
   14.0454    4.1872    0.0000 H   0  0  0  0  0  0  0  0  0  0  0  0
   13.6475    4.0099    0.0000 H   0  0  0  0  0  0  0  0  0  0  0  0
   16.2860    2.7941    0.0000 H   0  0  0  0  0  0  0  0  0  0  0  0
   13.9388    2.6263    0.0000 H   0  0  0  0  0  0  0  0  0  0  0  0
   15.6420    5.4101    0.0000 H   0  0  0  0  0  0  0  0  0  0  0  0
   14.9630    5.2683    0.0000 H   0  0  0  0  0  0  0  0  0  0  0  0
   14.2571    4.8327    0.0000 H   0  0  0  0  0  0  0  0  0  0  0  0
   15.1652    1.4982    0.0000 H   0  0  0  0  0  0  0  0  0  0  0  0
   15.6799    2.1068    0.0000 H   0  0  0  0  0  0  0  0  0  0  0  0
   13.6424    1.3741    0.0000 H   0  0  0  0  0  0  0  0  0  0  0  0
   14.4268    1.2326    0.0000 H   0  0  0  0  0  0  0  0  0  0  0  0
   11.1083    3.1176    0.0000 H   0  0  0  0  0  0  0  0  0  0  0  0
   17.6845    3.6027    0.0000 H   0  0  0  0  0  0  0  0  0  0  0  0
   13.2294    4.4760    0.0000 H   0  0  0  0  0  0  0  0  0  0  0  0
   12.4455    4.6267    0.0000 H   0  0  0  0  0  0  0  0  0  0  0  0
   11.6629    4.3520    0.0000 H   0  0  0  0  0  0  0  0  0  0  0  0
   11.1450    3.7445    0.0000 H   0  0  0  0  0  0  0  0  0  0  0  0
   15.6005    1.9741    0.0000 H   0  0  0  0  0  0  0  0  0  0  0  0
   16.4743    2.0472    0.0000 H   0  0  0  0  0  0  0  0  0  0  0  0
   16.4013    2.9210    0.0000 H   0  0  0  0  0  0  0  0  0  0  0  0
   12.3292    0.3680    0.0000 H   0  0  0  0  0  0  0  0  0  0  0  0
   12.8328    0.9874    0.0000 H   0  0  0  0  0  0  0  0  0  0  0  0
   10.4542    2.9677    0.0000 H   0  0  0  0  0  0  0  0  0  0  0  0
    9.9364    2.3601    0.0000 H   0  0  0  0  0  0  0  0  0  0  0  0
    9.8897    1.6878    0.0000 H   0  0  0  0  0  0  0  0  0  0  0  0
   12.7525    0.9326    0.0000 H   0  0  0  0  0  0  0  0  0  0  0  0
   13.6257    1.0124    0.0000 H   0  0  0  0  0  0  0  0  0  0  0  0
   13.5459    1.8856    0.0000 H   0  0  0  0  0  0  0  0  0  0  0  0
   10.7253    0.1926    0.0000 H   0  0  0  0  0  0  0  0  0  0  0  0
   11.5125    0.0600    0.0000 H   0  0  0  0  0  0  0  0  0  0  0  0
   17.0694    2.3731    0.0000 H   0  0  0  0  0  0  0  0  0  0  0  0
   17.9235    2.1748    0.0000 H   0  0  0  0  0  0  0  0  0  0  0  0
   18.1218    3.0289    0.0000 H   0  0  0  0  0  0  0  0  0  0  0  0
   17.6760    6.0442    0.0000 H   0  0  0  0  0  0  0  0  0  0  0  0
   17.1010    5.4922    0.0000 H   0  0  0  0  0  0  0  0  0  0  0  0
   19.2035    6.0098    0.0000 H   0  0  0  0  0  0  0  0  0  0  0  0
   18.4380    6.2317    0.0000 H   0  0  0  0  0  0  0  0  0  0  0  0
   19.1438    3.3641    0.0000 H   0  0  0  0  0  0  0  0  0  0  0  0
   19.7188    3.9161    0.0000 H   0  0  0  0  0  0  0  0  0  0  0  0
   19.5536    5.5386    0.0000 H   0  0  0  0  0  0  0  0  0  0  0  0
    9.0951    0.1363    0.0000 H   0  0  0  0  0  0  0  0  0  0  0  0
    7.6921    0.3263    0.0000 H   0  0  0  0  0  0  0  0  0  0  0  0
    9.1201    2.7084    0.0000 H   0  0  0  0  0  0  0  0  0  0  0  0
    7.1095    1.7343    0.0000 H   0  0  0  0  0  0  0  0  0  0  0  0
   20.5002    4.5802    0.0000 H   0  0  0  0  0  0  0  0  0  0  0  0
   20.9540    5.3304    0.0000 H   0  0  0  0  0  0  0  0  0  0  0  0
   20.2038    5.7842    0.0000 H   0  0  0  0  0  0  0  0  0  0  0  0
   10.0704   -0.5625    0.0000 H   0  0  0  0  0  0  0  0  0  0  0  0
    8.6242    4.0417    0.0000 H   0  0  0  0  0  0  0  0  0  0  0  0
    8.1118    3.4311    0.0000 H   0  0  0  0  0  0  0  0  0  0  0  0
    7.6921   -0.4337    0.0000 H   0  0  0  0  0  0  0  0  0  0  0  0
    9.8810   -1.9655    0.0000 H   0  0  0  0  0  0  0  0  0  0  0  0
    5.9941    0.1778    0.0000 H   0  0  0  0  0  0  0  0  0  0  0  0
   11.0012   -2.8312    0.0000 H   0  0  0  0  0  0  0  0  0  0  0  0
    7.6921   -2.6737    0.0000 H   0  0  0  0  0  0  0  0  0  0  0  0
   12.5005   -0.8909    0.0000 H   0  0  0  0  0  0  0  0  0  0  0  0
    6.6404    3.4851    0.0000 H   0  0  0  0  0  0  0  0  0  0  0  0
   11.3811   -2.8311    0.0000 H   0  0  0  0  0  0  0  0  0  0  0  0
   10.1465    3.3746    0.0000 H   0  0  0  0  0  0  0  0  0  0  0  0
    6.2892   -2.8637    0.0000 H   0  0  0  0  0  0  0  0  0  0  0  0
    6.3233    1.6655    0.0000 H   0  0  0  0  0  0  0  0  0  0  0  0
    8.8810   -1.9659    0.0000 H   0  0  0  0  0  0  0  0  0  0  0  0
    5.9601   -0.4337    0.0000 H   0  0  0  0  0  0  0  0  0  0  0  0
    5.9820    4.7385    0.0000 H   0  0  0  0  0  0  0  0  0  0  0  0
    5.9601   -2.6737    0.0000 H   0  0  0  0  0  0  0  0  0  0  0  0
   13.1550   -2.0465    0.0000 H   0  0  0  0  0  0  0  0  0  0  0  0
   13.8066   -1.4993    0.0000 H   0  0  0  0  0  0  0  0  0  0  0  0
    5.2480    2.5137    0.0000 H   0  0  0  0  0  0  0  0  0  0  0  0
    9.5714   -3.1608    0.0000 H   0  0  0  0  0  0  0  0  0  0  0  0
    4.2884   -0.1230    0.0000 H   0  0  0  0  0  0  0  0  0  0  0  0
    6.7383    5.9354    0.0000 H   0  0  0  0  0  0  0  0  0  0  0  0
    3.5321    1.0739    0.0000 H   0  0  0  0  0  0  0  0  0  0  0  0
   11.8814   -3.6970    0.0000 H   0  0  0  0  0  0  0  0  0  0  0  0
    8.8113    4.6255    0.0000 H   0  0  0  0  0  0  0  0  0  0  0  0
    5.4926   -0.0787    0.0000 H   0  0  0  0  0  0  0  0  0  0  0  0
    4.6955   -0.0787    0.0000 H   0  0  0  0  0  0  0  0  0  0  0  0
    8.1529    5.8789    0.0000 H   0  0  0  0  0  0  0  0  0  0  0  0
    9.0951   -3.2437    0.0000 H   0  0  0  0  0  0  0  0  0  0  0  0
    6.2892   -3.8637    0.0000 H   0  0  0  0  0  0  0  0  0  0  0  0
    5.9028    3.1761    0.0000 H   0  0  0  0  0  0  0  0  0  0  0  0
    5.0423    4.3965    0.0000 H   0  0  0  0  0  0  0  0  0  0  0  0
    5.0941   -3.1737    0.0000 H   0  0  0  0  0  0  0  0  0  0  0  0
    3.1046   -0.6920    0.0000 H   0  0  0  0  0  0  0  0  0  0  0  0
    3.8896   -0.5536    0.0000 H   0  0  0  0  0  0  0  0  0  0  0  0
   13.9465   -0.2303    0.0000 H   0  0  0  0  0  0  0  0  0  0  0  0
    4.0168    3.3120    0.0000 H   0  0  0  0  0  0  0  0  0  0  0  0
    9.4881    4.7834    0.0000 H   0  0  0  0  0  0  0  0  0  0  0  0
    9.8586    5.5781    0.0000 H   0  0  0  0  0  0  0  0  0  0  0  0
    9.0640    5.9486    0.0000 H   0  0  0  0  0  0  0  0  0  0  0  0
    9.5318   -3.4431    0.0000 H   0  0  0  0  0  0  0  0  0  0  0  0
    5.9722    6.5782    0.0000 H   0  0  0  0  0  0  0  0  0  0  0  0
    2.5924    1.4159    0.0000 H   0  0  0  0  0  0  0  0  0  0  0  0
    3.6911   -0.7437    0.0000 H   0  0  0  0  0  0  0  0  0  0  0  0
    8.3265    6.8637    0.0000 H   0  0  0  0  0  0  0  0  0  0  0  0
    9.9611   -4.7437    0.0000 H   0  0  0  0  0  0  0  0  0  0  0  0
    7.0816   -4.9460    0.0000 H   0  0  0  0  0  0  0  0  0  0  0  0
    7.4801   -5.6363    0.0000 H   0  0  0  0  0  0  0  0  0  0  0  0
    9.0951   -5.8637    0.0000 H   0  0  0  0  0  0  0  0  0  0  0  0
    2.0000   -0.2117    0.0000 H   0  0  0  0  0  0  0  0  0  0  0  0
   10.8075   -4.3550    0.0000 H   0  0  0  0  0  0  0  0  0  0  0  0
   10.2902   -6.1737    0.0000 H   0  0  0  0  0  0  0  0  0  0  0  0
    8.0212   -6.8637    0.0000 H   0  0  0  0  0  0  0  0  0  0  0  0
  1 38  1  0  0  0  0
  1 46  1  0  0  0  0
  2 46  1  0  0  0  0
  2 57  1  0  0  0  0
  3 55  1  0  0  0  0
  3 61  1  0  0  0  0
 55  4  1  6  0  0  0
 64  4  1  1  0  0  0
 59  5  1  6  0  0  0
 66  5  1  1  0  0  0
 60  6  1  1  0  0  0
 68  6  1  1  0  0  0
 62  7  1  1  0  0  0
 72  7  1  1  0  0  0
  8 64  1  0  0  0  0
  8 71  1  0  0  0  0
  9 66  1  0  0  0  0
  9 76  1  0  0  0  0
 10 65  1  0  0  0  0
 10152  1  0  0  0  0
 67 11  1  1  0  0  0
 11155  1  0  0  0  0
 12 68  1  0  0  0  0
 12 81  1  0  0  0  0
 70 13  1  6  0  0  0
 87 13  1  1  0  0  0
 14 72  1  0  0  0  0
 14 84  1  0  0  0  0
 69 15  1  6  0  0  0
 15162  1  0  0  0  0
 73 16  1  1  0  0  0
 16166  1  0  0  0  0
 74 17  1  1  0  0  0
 17172  1  0  0  0  0
 75 18  1  1  0  0  0
 18173  1  0  0  0  0
 77 19  1  6  0  0  0
 19174  1  0  0  0  0
 78 20  1  6  0  0  0
 20175  1  0  0  0  0
 21 79  1  0  0  0  0
 21178  1  0  0  0  0
 80 22  1  6  0  0  0
 22179  1  0  0  0  0
 82 23  1  6  0  0  0
 23184  1  0  0  0  0
 83 24  1  1  0  0  0
 24185  1  0  0  0  0
 25 87  1  0  0  0  0
 25 92  1  0  0  0  0
 26 85  1  0  0  0  0
 26186  1  0  0  0  0
 86 27  1  1  0  0  0
 27187  1  0  0  0  0
 28 88  1  0  0  0  0
 28192  1  0  0  0  0
 90 29  1  6  0  0  0
 29193  1  0  0  0  0
 91 30  1  1  0  0  0
 30194  1  0  0  0  0
 93 31  1  6  0  0  0
 31195  1  0  0  0  0
 32 33  1  0  0  0  0
 32 35  1  0  0  0  0
 32 40  1  0  0  0  0
 32 47  1  6  0  0  0
 33 34  1  0  0  0  0
 33 39  1  0  0  0  0
 33 94  1  0  0  0  0
 34 36  1  0  0  0  0
 34 44  1  0  0  0  0
 34 95  1  0  0  0  0
 35 38  1  0  0  0  0
 35 43  1  0  0  0  0
 35 96  1  1  0  0  0
 36 37  1  0  0  0  0
 36 41  1  0  0  0  0
 36 97  1  0  0  0  0
 37 42  1  0  0  0  0
 37 48  1  0  0  0  0
 37 51  1  6  0  0  0
 38 39  1  0  0  0  0
 38 98  1  1  0  0  0
 39 99  1  0  0  0  0
 39100  1  0  0  0  0
 40 41  1  0  0  0  0
 40101  1  0  0  0  0
 40102  1  0  0  0  0
 41103  1  0  0  0  0
 41104  1  0  0  0  0
 42 45  1  0  0  0  0
 42 49  1  0  0  0  0
 42105  1  0  0  0  0
 43 46  1  0  0  0  0
 43 53  1  1  0  0  0
 43106  1  0  0  0  0
 44 45  1  0  0  0  0
 44107  1  0  0  0  0
 44108  1  0  0  0  0
 45109  1  0  0  0  0
 45110  1  0  0  0  0
 46 54  1  0  0  0  0
 47111  1  0  0  0  0
 47112  1  0  0  0  0
 47113  1  0  0  0  0
 48 52  1  0  0  0  0
 48114  1  0  0  0  0
 48115  1  0  0  0  0
 49 50  1  0  0  0  0
 49116  1  0  0  0  0
 49117  1  0  0  0  0
 50 52  1  0  0  0  0
 50 55  1  0  0  0  0
 50118  1  0  0  0  0
 51119  1  0  0  0  0
 51120  1  0  0  0  0
 51121  1  0  0  0  0
 52122  1  0  0  0  0
 52123  1  0  0  0  0
 53124  1  0  0  0  0
 53125  1  0  0  0  0
 53126  1  0  0  0  0
 54 56  1  0  0  0  0
 54127  1  0  0  0  0
 54128  1  0  0  0  0
 55 59  1  0  0  0  0
 56 58  1  0  0  0  0
 56129  1  0  0  0  0
 56130  1  0  0  0  0
 57 58  1  0  0  0  0
 57131  1  0  0  0  0
 57132  1  0  0  0  0
 58 63  1  0  0  0  0
 58133  1  0  0  0  0
 59 60  1  0  0  0  0
 59134  1  0  0  0  0
 60 62  1  0  0  0  0
 60135  1  0  0  0  0
 61 62  1  0  0  0  0
 61 65  1  6  0  0  0
 61136  1  0  0  0  0
 62137  1  0  0  0  0
 63138  1  0  0  0  0
 63139  1  0  0  0  0
 63140  1  0  0  0  0
 64 67  1  0  0  0  0
 64141  1  0  0  0  0
 65142  1  0  0  0  0
 65143  1  0  0  0  0
 66 70  1  0  0  0  0
 66144  1  0  0  0  0
 67 69  1  0  0  0  0
 67145  1  0  0  0  0
 68 75  1  0  0  0  0
 68146  1  0  0  0  0
 69 73  1  0  0  0  0
 69147  1  0  0  0  0
 70 74  1  0  0  0  0
 70148  1  0  0  0  0
 71 73  1  0  0  0  0
 71 79  1  6  0  0  0
 71149  1  0  0  0  0
 72 77  1  0  0  0  0
 72150  1  0  0  0  0
 73151  1  0  0  0  0
 74 78  1  0  0  0  0
 74153  1  0  0  0  0
 75 80  1  0  0  0  0
 75154  1  0  0  0  0
 76 78  1  0  0  0  0
 76 85  1  1  0  0  0
 76156  1  0  0  0  0
 77 82  1  0  0  0  0
 77157  1  0  0  0  0
 78158  1  0  0  0  0
 79159  1  0  0  0  0
 79160  1  0  0  0  0
 80 83  1  0  0  0  0
 80161  1  0  0  0  0
 81 83  1  0  0  0  0
 81 88  1  6  0  0  0
 81163  1  0  0  0  0
 82 86  1  0  0  0  0
 82164  1  0  0  0  0
 83165  1  0  0  0  0
 84 86  1  0  0  0  0
 84 89  1  6  0  0  0
 84167  1  0  0  0  0
 85168  1  0  0  0  0
 85169  1  0  0  0  0
 86170  1  0  0  0  0
 87 90  1  0  0  0  0
 87171  1  0  0  0  0
 88176  1  0  0  0  0
 88177  1  0  0  0  0
 89180  1  0  0  0  0
 89181  1  0  0  0  0
 89182  1  0  0  0  0
 90 91  1  0  0  0  0
 90183  1  0  0  0  0
 91 93  1  0  0  0  0
 91188  1  0  0  0  0
 92 93  1  0  0  0  0
 92189  1  0  0  0  0
 92190  1  0  0  0  0
 93191  1  0  0  0  0
M  END
> <PUBCHEM_COMPOUND_CID>
44149635

> <PUBCHEM_COMPOUND_CANONICALIZED>
1

> <PUBCHEM_CACTVS_COMPLEXITY>
2500

> <PUBCHEM_CACTVS_HBOND_ACCEPTOR>
31

> <PUBCHEM_CACTVS_HBOND_DONOR>
18

> <PUBCHEM_CACTVS_ROTATABLE_BOND>
15

> <PUBCHEM_CACTVS_SUBSKEYS>
AAADcfB8PgAAAAAAAAAAAAAAAAAAAaIAAAA0aNEiQAASAGDAAAAAGgAACAAADxSwgAMCCAAABgAAAAAAAAAAAAAAAAAAAAAAAAAREAIAAAAiQAAFAAAHAAHA4PwPgAAAAAAAAACAAAQAACAAAYAADAAAAA==

> <PUBCHEM_IUPAC_OPENEYE_NAME>
(2S,3R,4R,5R,6S)-2-[(2S,3S,4S,5R,6R)-5-[(2S,3R,4S,5S,6R)-4,5-dihydroxy-6-(hydroxymethyl)-3-[(2S,3R,4S,5R)-3,4,5-trihydroxytetrahydropyran-2-yl]oxy-tetrahydropyran-2-yl]oxy-2-(hydroxymethyl)-6-[(4S,7S,8R,9S,13S)-5',7,9,13-tetramethylspiro[5-oxapentacyclo[10.8.0.02,9.04,8.013,18]icosane-6,2'-tetrahydropyran]-16-yl]-4,6-bis[[(2R,3R,4S,5S,6R)-3,4,5-trihydroxy-6-(hydroxymethyl)tetrahydropyran-2-yl]oxy]tetrahydropyran-3-yl]oxy-6-methyl-tetrahydropyran-3,4,5-triol

> <PUBCHEM_IUPAC_CAS_NAME>
(2S,3R,4R,5R,6S)-2-[[(2S,3S,4S,5R,6R)-5-[[(2S,3R,4S,5S,6R)-4,5-dihydroxy-6-(hydroxymethyl)-3-[[(2S,3R,4S,5R)-3,4,5-trihydroxy-2-oxanyl]oxy]-2-oxanyl]oxy]-2-(hydroxymethyl)-6-[(4S,7S,8R,9S,13S)-5',7,9,13-tetramethyl-16-spiro[5-oxapentacyclo[10.8.0.02,9.04,8.013,18]eicosane-6,2'-oxane]yl]-4,6-bis[[(2R,3R,4S,5S,6R)-3,4,5-trihydroxy-6-(hydroxymethyl)-2-oxanyl]oxy]-3-oxanyl]oxy]-6-methyloxane-3,4,5-triol

> <PUBCHEM_IUPAC_NAME_MARKUP>
(2<I>S</I>,3<I>R</I>,4<I>R</I>,5<I>R</I>,6<I>S</I>)-2-[(2<I>S</I>,3<I>S</I>,4<I>S</I>,5<I>R</I>,6<I>R</I>)-5-[(2<I>S</I>,3<I>R</I>,4<I>S</I>,5<I>S</I>,6<I>R</I>)-4,5-dihydroxy-6-(hydroxymethyl)-3-[(2<I>S</I>,3<I>R</I>,4<I>S</I>,5<I>R</I>)-3,4,5-trihydroxyoxan-2-yl]oxyoxan-2-yl]oxy-2-(hydroxymethyl)-6-[(4<I>S</I>,7<I>S</I>,8<I>R</I>,9<I>S</I>,13<I>S</I>)-5&apos;,7,9,13-tetramethylspiro[5-oxapentacyclo[10.8.0.0<SUP>2,9</SUP>.0<SUP>4,8</SUP>.0<SUP>13,18</SUP>]icosane-6,2&apos;-oxane]-16-yl]-4,6-bis[[(2<I>R</I>,3<I>R</I>,4<I>S</I>,5<I>S</I>,6<I>R</I>)-3,4,5-trihydroxy-6-(hydroxymethyl)oxan-2-yl]oxy]oxan-3-yl]oxy-6-methyloxane-3,4,5-triol

> <PUBCHEM_IUPAC_NAME>
(2S,3R,4R,5R,6S)-2-[(2S,3S,4S,5R,6R)-5-[(2S,3R,4S,5S,6R)-4,5-dihydroxy-6-(hydroxymethyl)-3-[(2S,3R,4S,5R)-3,4,5-trihydroxyoxan-2-yl]oxyoxan-2-yl]oxy-2-(hydroxymethyl)-6-[(4S,7S,8R,9S,13S)-5',7,9,13-tetramethylspiro[5-oxapentacyclo[10.8.0.02,9.04,8.013,18]icosane-6,2'-oxane]-16-yl]-4,6-bis[[(2R,3R,4S,5S,6R)-3,4,5-trihydroxy-6-(hydroxymethyl)oxan-2-yl]oxy]oxan-3-yl]oxy-6-methyloxane-3,4,5-triol

> <PUBCHEM_IUPAC_SYSTEMATIC_NAME>
(2S,3R,4R,5R,6S)-2-[(2S,3S,4S,5R,6R)-2-(hydroxymethyl)-5-[(2S,3R,4S,5S,6R)-6-(hydroxymethyl)-4,5-bis(oxidanyl)-3-[(2S,3R,4S,5R)-3,4,5-tris(oxidanyl)oxan-2-yl]oxy-oxan-2-yl]oxy-4,6-bis[[(2R,3R,4S,5S,6R)-6-(hydroxymethyl)-3,4,5-tris(oxidanyl)oxan-2-yl]oxy]-6-[(4S,7S,8R,9S,13S)-5',7,9,13-tetramethylspiro[5-oxapentacyclo[10.8.0.02,9.04,8.013,18]icosane-6,2'-oxane]-16-yl]oxan-3-yl]oxy-6-methyl-oxane-3,4,5-triol

> <PUBCHEM_IUPAC_TRADITIONAL_NAME>
(2S,3R,4R,5R,6S)-2-[(2S,3S,4S,5R,6R)-5-[(2S,3R,4S,5S,6R)-4,5-dihydroxy-6-methylol-3-[(2S,3R,4S,5R)-3,4,5-trihydroxytetrahydropyran-2-yl]oxy-tetrahydropyran-2-yl]oxy-2-methylol-6-[(4S,7S,8R,9S,13S)-5',7,9,13-tetramethylspiro[5-oxapentacyclo[10.8.0.02,9.04,8.013,18]eicosane-6,2'-tetrahydropyran]-16-yl]-4,6-bis[[(2R,3R,4S,5S,6R)-3,4,5-trihydroxy-6-methylol-tetrahydropyran-2-yl]oxy]tetrahydropyran-3-yl]oxy-6-methyl-tetrahydropyran-3,4,5-triol

> <PUBCHEM_IUPAC_INCHI>
InChI=1S/C62H102O31/c1-22-8-13-61(82-20-22)23(2)36-31(91-61)15-29-27-7-6-25-14-26(9-11-59(25,4)28(27)10-12-60(29,36)5)62(93-57-49(80)44(75)40(71)33(17-64)85-57)53(90-58-51(45(76)41(72)34(18-65)86-58)88-54-46(77)38(69)30(67)21-81-54)52(89-56-48(79)43(74)39(70)32(16-63)84-56)50(35(19-66)92-62)87-55-47(78)42(73)37(68)24(3)83-55/h22-58,63-80H,6-21H2,1-5H3/t22?,23-,24-,25?,26?,27?,28?,29?,30+,31-,32+,33+,34+,35-,36-,37-,38-,39+,40+,41+,42+,43-,44-,45-,46+,47+,48+,49+,50-,51+,52-,53+,54-,55-,56+,57+,58-,59-,60-,61?,62+/m0/s1

> <PUBCHEM_IUPAC_INCHIKEY>
GHMAUSNPKUGEEC-RMJYRNESSA-N

> <PUBCHEM_XLOGP3_AA>
-3.4

> <PUBCHEM_EXACT_MASS>
1342.640506

> <PUBCHEM_MOLECULAR_FORMULA>
C62H102O31

> <PUBCHEM_MOLECULAR_WEIGHT>
1343.5

> <PUBCHEM_OPENEYE_CAN_SMILES>
CC1CCC2(C(C3C(O2)CC4C3(CCC5C4CCC6C5(CCC(C6)C7(C(C(C(C(O7)CO)OC8C(C(C(C(O8)C)O)O)O)OC9C(C(C(C(O9)CO)O)O)O)OC2C(C(C(C(O2)CO)O)O)OC2C(C(C(CO2)O)O)O)OC2C(C(C(C(O2)CO)O)O)O)C)C)C)OC1

> <PUBCHEM_OPENEYE_ISO_SMILES>
C[C@H]1[C@H]2[C@H](CC3[C@@]2(CCC4C3CCC5[C@@]4(CCC(C5)[C@]6([C@@H]([C@H]([C@H]([C@@H](O6)CO)O[C@H]7[C@@H]([C@@H]([C@H]([C@@H](O7)C)O)O)O)O[C@@H]8[C@@H]([C@H]([C@@H]([C@H](O8)CO)O)O)O)O[C@H]9[C@@H]([C@H]([C@@H]([C@H](O9)CO)O)O)O[C@H]2[C@@H]([C@H]([C@@H](CO2)O)O)O)O[C@@H]2[C@@H]([C@H]([C@@H]([C@H](O2)CO)O)O)O)C)C)OC11CCC(CO1)C

> <PUBCHEM_CACTVS_TPSA>
484

> <PUBCHEM_MONOISOTOPIC_WEIGHT>
1342.640506

> <PUBCHEM_TOTAL_CHARGE>
0

> <PUBCHEM_HEAVY_ATOM_COUNT>
93

> <PUBCHEM_ATOM_DEF_STEREO_COUNT>
34

> <PUBCHEM_ATOM_UDEF_STEREO_COUNT>
7

> <PUBCHEM_BOND_DEF_STEREO_COUNT>
0

> <PUBCHEM_BOND_UDEF_STEREO_COUNT>
0

> <PUBCHEM_ISOTOPIC_ATOM_COUNT>
0

> <PUBCHEM_COMPONENT_COUNT>
1

> <PUBCHEM_CACTVS_TAUTO_COUNT>
-1

> <PUBCHEM_COORDINATE_TYPE>
1
5
255

> <PUBCHEM_BONDANNOTATIONS>
67  11  5
70  13  6
87  13  5
69  15  6
73  16  5
74  17  5
75  18  5
77  19  6
78  20  6
80  22  6
82  23  6
83  24  5
86  27  5
90  29  6
91  30  5
93  31  6
32  47  6
33  39  3
34  44  3
35  96  5
36  41  3
37  51  6
38  98  5
55  4  6
64  4  5
42  45  3
43  53  5
46  54  3
59  5  6
66  5  5
50  52  3
58  63  3
60  6  5
68  6  5
61  65  6
62  7  5
72  7  5
71  79  6
76  85  5
81  88  6
84  89  6

$$$$
