11434838
  -OEChem-08312003472D

194204  0     1  0  0  0  0  0999 V2000
    4.6888    5.4136    0.0000 O   0  0  0  0  0  0  0  0  0  0  0  0
    4.9046    1.6796    0.0000 O   0  0  0  0  0  0  0  0  0  0  0  0
    2.8574    4.7054    0.0000 O   0  0  0  0  0  0  0  0  0  0  0  0
   11.1168    0.0591    0.0000 O   0  0  0  0  0  0  0  0  0  0  0  0
   10.2508   -1.4409    0.0000 O   0  0  0  0  0  0  0  0  0  0  0  0
    3.3220    9.2448    0.0000 O   0  0  0  0  0  0  0  0  0  0  0  0
   12.8489   -0.9409    0.0000 O   0  0  0  0  0  0  0  0  0  0  0  0
   12.8489   -2.9409    0.0000 O   0  0  0  0  0  0  0  0  0  0  0  0
   11.1168   -3.9409    0.0000 O   0  0  0  0  0  0  0  0  0  0  0  0
    8.5188   -2.4409    0.0000 O   0  0  0  0  0  0  0  0  0  0  0  0
    3.3168   10.9769    0.0000 O   0  0  0  0  0  0  0  0  0  0  0  0
    9.3848   -3.9409    0.0000 O   0  0  0  0  0  0  0  0  0  0  0  0
    5.3220    9.2508    0.0000 O   0  0  0  0  0  0  0  0  0  0  0  0
   11.1168   -5.9409    0.0000 O   0  0  0  0  0  0  0  0  0  0  0  0
    6.3168   10.9858    0.0000 O   0  0  0  0  0  0  0  0  0  0  0  0
    5.3116   12.7149    0.0000 O   0  0  0  0  0  0  0  0  0  0  0  0
    9.3848   -6.9409    0.0000 O   0  0  0  0  0  0  0  0  0  0  0  0
    7.5340   -5.2672    0.0000 O   0  0  0  0  0  0  0  0  0  0  0  0
    2.3116   12.7059    0.0000 O   0  0  0  0  0  0  0  0  0  0  0  0
   10.2508   -7.4409    0.0000 O   0  0  0  0  0  0  0  0  0  0  0  0
    7.6527   -2.9409    0.0000 O   0  0  0  0  0  0  0  0  0  0  0  0
    8.5188   -8.4409    0.0000 O   0  0  0  0  0  0  0  0  0  0  0  0
   12.8489   -6.9409    0.0000 O   0  0  0  0  0  0  0  0  0  0  0  0
   12.8489   -8.9409    0.0000 O   0  0  0  0  0  0  0  0  0  0  0  0
    7.0099   -6.1748    0.0000 O   0  0  0  0  0  0  0  0  0  0  0  0
   11.1168   -9.9409    0.0000 O   0  0  0  0  0  0  0  0  0  0  0  0
    5.9207   -6.9409    0.0000 O   0  0  0  0  0  0  0  0  0  0  0  0
    5.9207   -8.9409    0.0000 O   0  0  0  0  0  0  0  0  0  0  0  0
    9.3848   -9.9409    0.0000 O   0  0  0  0  0  0  0  0  0  0  0  0
   11.9829  -10.4409    0.0000 O   0  0  0  0  0  0  0  0  0  0  0  0
   14.5809   -9.9409    0.0000 O   0  0  0  0  0  0  0  0  0  0  0  0
   14.5809  -11.9409    0.0000 O   0  0  0  0  0  0  0  0  0  0  0  0
   12.8489  -12.9409    0.0000 O   0  0  0  0  0  0  0  0  0  0  0  0
    6.6289    3.6862    0.0000 C   0  0  2  0  0  0  0  0  0  0  0  0
    5.7648    3.1829    0.0000 C   0  0  1  0  0  0  0  0  0  0  0  0
    7.4968    3.1896    0.0000 C   0  0  1  0  0  0  0  0  0  0  0  0
    5.0252    3.8471    0.0000 C   0  0  2  0  0  0  0  0  0  0  0  0
    7.5007    2.1896    0.0000 C   0  0  1  0  0  0  0  0  0  0  0  0
    8.3967    1.6584    0.0000 C   0  0  2  0  0  0  0  0  0  0  0  0
    5.4268    4.7565    0.0000 C   0  0  2  0  0  0  0  0  0  0  0  0
    6.4159    4.6572    0.0000 C   0  0  0  0  0  0  0  0  0  0  0  0
    9.3008    2.1757    0.0000 C   0  0  1  0  0  0  0  0  0  0  0  0
    4.0424    3.9500    0.0000 C   0  0  1  0  0  0  0  0  0  0  0  0
    6.6366    1.6862    0.0000 C   0  0  0  0  0  0  0  0  0  0  0  0
    8.3887    3.7277    0.0000 C   0  0  0  0  0  0  0  0  0  0  0  0
    5.7687    2.1829    0.0000 C   0  0  0  0  0  0  0  0  0  0  0  0
    9.2968    3.2173    0.0000 C   0  0  0  0  0  0  0  0  0  0  0  0
    3.8349    4.9162    0.0000 C   0  0  1  0  0  0  0  0  0  0  0  0
    8.3758    0.5736    0.0000 C   0  0  0  0  0  0  0  0  0  0  0  0
    4.9007    2.6796    0.0000 C   0  0  0  0  0  0  0  0  0  0  0  0
   10.2466    1.6441    0.0000 C   0  0  0  0  0  0  0  0  0  0  0  0
    7.5288    1.1617    0.0000 C   0  0  0  0  0  0  0  0  0  0  0  0
    9.3091    0.0202    0.0000 C   0  0  0  0  0  0  0  0  0  0  0  0
   10.2508    0.5591    0.0000 C   0  0  2  0  0  0  0  0  0  0  0  0
    3.3742    3.2060    0.0000 C   0  0  0  0  0  0  0  0  0  0  0  0
    3.3323    5.7807    0.0000 C   0  0  0  0  0  0  0  0  0  0  0  0
    3.8297    6.6482    0.0000 C   0  0  0  0  0  0  0  0  0  0  0  0
    3.3271    7.5128    0.0000 C   0  0  2  0  0  0  0  0  0  0  0  0
   11.1168   -0.9409    0.0000 C   0  0  2  0  0  0  0  0  0  0  0  0
   11.9829   -1.4409    0.0000 C   0  0  1  0  0  0  0  0  0  0  0  0
    3.8245    8.3803    0.0000 C   0  0  0  0  0  0  0  0  0  0  0  0
    2.3271    7.5098    0.0000 C   0  0  0  0  0  0  0  0  0  0  0  0
   11.9829   -2.4409    0.0000 C   0  0  2  0  0  0  0  0  0  0  0  0
   10.2508   -2.4409    0.0000 C   0  0  1  0  0  0  0  0  0  0  0  0
   11.1168   -2.9409    0.0000 C   0  0  2  0  0  0  0  0  0  0  0  0
    9.3848   -2.9409    0.0000 C   0  0  0  0  0  0  0  0  0  0  0  0
    3.8194   10.1123    0.0000 C   0  0  2  0  0  0  0  0  0  0  0  0
   10.2508   -4.4409    0.0000 C   0  0  2  0  0  0  0  0  0  0  0  0
    4.8194   10.1153    0.0000 C   0  0  1  0  0  0  0  0  0  0  0  0
    5.3168   10.9828    0.0000 C   0  0  2  0  0  0  0  0  0  0  0  0
   10.2508   -5.4409    0.0000 C   0  0  1  0  0  0  0  0  0  0  0  0
    3.8142   11.8444    0.0000 C   0  0  1  0  0  0  0  0  0  0  0  0
    4.8142   11.8474    0.0000 C   0  0  1  0  0  0  0  0  0  0  0  0
    9.3848   -5.9409    0.0000 C   0  0  2  0  0  0  0  0  0  0  0  0
    8.5188   -4.4409    0.0000 C   0  0  1  0  0  0  0  0  0  0  0  0
    8.5188   -5.4409    0.0000 C   0  0  1  0  0  0  0  0  0  0  0  0
    3.3116   12.7089    0.0000 C   0  0  0  0  0  0  0  0  0  0  0  0
    7.6527   -3.9409    0.0000 C   0  0  0  0  0  0  0  0  0  0  0  0
   11.1168   -6.9409    0.0000 C   0  0  2  0  0  0  0  0  0  0  0  0
    8.5188   -7.4409    0.0000 C   0  0  2  0  0  0  0  0  0  0  0  0
   11.9829   -7.4409    0.0000 C   0  0  1  0  0  0  0  0  0  0  0  0
   11.9829   -8.4409    0.0000 C   0  0  2  0  0  0  0  0  0  0  0  0
    7.6527   -6.9409    0.0000 C   0  0  1  0  0  0  0  0  0  0  0  0
   10.2508   -8.4409    0.0000 C   0  0  1  0  0  0  0  0  0  0  0  0
   11.1168   -8.9409    0.0000 C   0  0  1  0  0  0  0  0  0  0  0  0
    6.7867   -7.4409    0.0000 C   0  0  2  0  0  0  0  0  0  0  0  0
    7.6527   -8.9409    0.0000 C   0  0  0  0  0  0  0  0  0  0  0  0
    6.7867   -8.4409    0.0000 C   0  0  1  0  0  0  0  0  0  0  0  0
    9.3848   -8.9409    0.0000 C   0  0  0  0  0  0  0  0  0  0  0  0
   12.8489   -9.9409    0.0000 C   0  0  2  0  0  0  0  0  0  0  0  0
   13.7149  -10.4409    0.0000 C   0  0  1  0  0  0  0  0  0  0  0  0
   13.7149  -11.4409    0.0000 C   0  0  2  0  0  0  0  0  0  0  0  0
   11.9829  -11.4409    0.0000 C   0  0  0  0  0  0  0  0  0  0  0  0
   12.8489  -11.9409    0.0000 C   0  0  1  0  0  0  0  0  0  0  0  0
    7.3140    4.1894    0.0000 H   0  0  0  0  0  0  0  0  0  0  0  0
    8.2378    2.7731    0.0000 H   0  0  0  0  0  0  0  0  0  0  0  0
    4.6801    3.0703    0.0000 H   0  0  0  0  0  0  0  0  0  0  0  0
    8.2385    2.6117    0.0000 H   0  0  0  0  0  0  0  0  0  0  0  0
    5.7686    5.5348    0.0000 H   0  0  0  0  0  0  0  0  0  0  0  0
    7.0322    4.7257    0.0000 H   0  0  0  0  0  0  0  0  0  0  0  0
    6.4127    5.2772    0.0000 H   0  0  0  0  0  0  0  0  0  0  0  0
   10.0336    2.6064    0.0000 H   0  0  0  0  0  0  0  0  0  0  0  0
    3.4433    4.1095    0.0000 H   0  0  0  0  0  0  0  0  0  0  0  0
    6.2399    1.2098    0.0000 H   0  0  0  0  0  0  0  0  0  0  0  0
    7.0370    1.2128    0.0000 H   0  0  0  0  0  0  0  0  0  0  0  0
    8.7805    4.2082    0.0000 H   0  0  0  0  0  0  0  0  0  0  0  0
    7.9823    4.1959    0.0000 H   0  0  0  0  0  0  0  0  0  0  0  0
    9.9080    3.1136    0.0000 H   0  0  0  0  0  0  0  0  0  0  0  0
    9.5036    3.8018    0.0000 H   0  0  0  0  0  0  0  0  0  0  0  0
    7.7671    0.6914    0.0000 H   0  0  0  0  0  0  0  0  0  0  0  0
    8.1555   -0.0060    0.0000 H   0  0  0  0  0  0  0  0  0  0  0  0
    4.5886    3.2153    0.0000 H   0  0  0  0  0  0  0  0  0  0  0  0
    4.3650    2.3675    0.0000 H   0  0  0  0  0  0  0  0  0  0  0  0
    5.2128    2.1438    0.0000 H   0  0  0  0  0  0  0  0  0  0  0  0
   10.8579    1.5404    0.0000 H   0  0  0  0  0  0  0  0  0  0  0  0
   10.4534    2.2286    0.0000 H   0  0  0  0  0  0  0  0  0  0  0  0
    7.2208    1.6998    0.0000 H   0  0  0  0  0  0  0  0  0  0  0  0
    6.9906    0.8538    0.0000 H   0  0  0  0  0  0  0  0  0  0  0  0
    7.8367    0.6236    0.0000 H   0  0  0  0  0  0  0  0  0  0  0  0
    8.9063   -0.4511    0.0000 H   0  0  0  0  0  0  0  0  0  0  0  0
    9.7046   -0.4573    0.0000 H   0  0  0  0  0  0  0  0  0  0  0  0
   10.7871    0.8702    0.0000 H   0  0  0  0  0  0  0  0  0  0  0  0
    2.9129    3.6203    0.0000 H   0  0  0  0  0  0  0  0  0  0  0  0
    2.9599    2.7448    0.0000 H   0  0  0  0  0  0  0  0  0  0  0  0
    3.8355    2.7918    0.0000 H   0  0  0  0  0  0  0  0  0  0  0  0
    2.8562    6.1778    0.0000 H   0  0  0  0  0  0  0  0  0  0  0  0
    2.8586    5.3808    0.0000 H   0  0  0  0  0  0  0  0  0  0  0  0
    2.4411    5.1649    0.0000 H   0  0  0  0  0  0  0  0  0  0  0  0
    4.3059    6.2511    0.0000 H   0  0  0  0  0  0  0  0  0  0  0  0
    4.3035    7.0482    0.0000 H   0  0  0  0  0  0  0  0  0  0  0  0
    3.0155    8.0488    0.0000 H   0  0  0  0  0  0  0  0  0  0  0  0
   10.5799   -0.6309    0.0000 H   0  0  0  0  0  0  0  0  0  0  0  0
   12.5198   -1.7509    0.0000 H   0  0  0  0  0  0  0  0  0  0  0  0
    4.3007    7.9832    0.0000 H   0  0  0  0  0  0  0  0  0  0  0  0
    4.2983    8.7802    0.0000 H   0  0  0  0  0  0  0  0  0  0  0  0
    2.3253    8.1298    0.0000 H   0  0  0  0  0  0  0  0  0  0  0  0
    1.7071    7.5079    0.0000 H   0  0  0  0  0  0  0  0  0  0  0  0
    2.3290    6.8898    0.0000 H   0  0  0  0  0  0  0  0  0  0  0  0
   11.9829   -3.0609    0.0000 H   0  0  0  0  0  0  0  0  0  0  0  0
    9.7139   -2.1309    0.0000 H   0  0  0  0  0  0  0  0  0  0  0  0
   10.5799   -3.2509    0.0000 H   0  0  0  0  0  0  0  0  0  0  0  0
   12.8489   -0.3209    0.0000 H   0  0  0  0  0  0  0  0  0  0  0  0
    8.9862   -3.4158    0.0000 H   0  0  0  0  0  0  0  0  0  0  0  0
    9.7833   -3.4158    0.0000 H   0  0  0  0  0  0  0  0  0  0  0  0
   13.3858   -2.6309    0.0000 H   0  0  0  0  0  0  0  0  0  0  0  0
    3.1994   10.1105    0.0000 H   0  0  0  0  0  0  0  0  0  0  0  0
   10.7877   -4.7509    0.0000 H   0  0  0  0  0  0  0  0  0  0  0  0
    4.5110    9.5775    0.0000 H   0  0  0  0  0  0  0  0  0  0  0  0
    8.5188   -1.8209    0.0000 H   0  0  0  0  0  0  0  0  0  0  0  0
    5.6284   10.4468    0.0000 H   0  0  0  0  0  0  0  0  0  0  0  0
   10.2508   -6.0609    0.0000 H   0  0  0  0  0  0  0  0  0  0  0  0
    3.1942   11.8425    0.0000 H   0  0  0  0  0  0  0  0  0  0  0  0
    5.4342   11.8492    0.0000 H   0  0  0  0  0  0  0  0  0  0  0  0
    8.8478   -6.2509    0.0000 H   0  0  0  0  0  0  0  0  0  0  0  0
    8.5188   -3.8209    0.0000 H   0  0  0  0  0  0  0  0  0  0  0  0
    5.9419    9.2526    0.0000 H   0  0  0  0  0  0  0  0  0  0  0  0
    8.3067   -6.0235    0.0000 H   0  0  0  0  0  0  0  0  0  0  0  0
    3.8936   12.9227    0.0000 H   0  0  0  0  0  0  0  0  0  0  0  0
    3.2021   13.3192    0.0000 H   0  0  0  0  0  0  0  0  0  0  0  0
    6.6252   11.5237    0.0000 H   0  0  0  0  0  0  0  0  0  0  0  0
    5.0000   13.2509    0.0000 H   0  0  0  0  0  0  0  0  0  0  0  0
    7.0421   -3.8332    0.0000 H   0  0  0  0  0  0  0  0  0  0  0  0
    7.4407   -4.5235    0.0000 H   0  0  0  0  0  0  0  0  0  0  0  0
   10.5799   -6.6309    0.0000 H   0  0  0  0  0  0  0  0  0  0  0  0
    7.3220   -4.6845    0.0000 H   0  0  0  0  0  0  0  0  0  0  0  0
    8.5188   -6.8209    0.0000 H   0  0  0  0  0  0  0  0  0  0  0  0
    2.0000   13.2419    0.0000 H   0  0  0  0  0  0  0  0  0  0  0  0
   12.5198   -7.7509    0.0000 H   0  0  0  0  0  0  0  0  0  0  0  0
   11.9829   -9.0609    0.0000 H   0  0  0  0  0  0  0  0  0  0  0  0
    7.1158   -2.6309    0.0000 H   0  0  0  0  0  0  0  0  0  0  0  0
    8.0512   -6.4659    0.0000 H   0  0  0  0  0  0  0  0  0  0  0  0
    9.7139   -8.1309    0.0000 H   0  0  0  0  0  0  0  0  0  0  0  0
   10.5799   -9.2509    0.0000 H   0  0  0  0  0  0  0  0  0  0  0  0
    6.7867   -6.8209    0.0000 H   0  0  0  0  0  0  0  0  0  0  0  0
   12.8489   -6.3209    0.0000 H   0  0  0  0  0  0  0  0  0  0  0  0
    7.2542   -9.4158    0.0000 H   0  0  0  0  0  0  0  0  0  0  0  0
    8.0512   -9.4158    0.0000 H   0  0  0  0  0  0  0  0  0  0  0  0
    6.7867   -9.0609    0.0000 H   0  0  0  0  0  0  0  0  0  0  0  0
    9.1727   -8.3583    0.0000 H   0  0  0  0  0  0  0  0  0  0  0  0
    8.7742   -9.0486    0.0000 H   0  0  0  0  0  0  0  0  0  0  0  0
    6.3994   -6.2825    0.0000 H   0  0  0  0  0  0  0  0  0  0  0  0
   10.5799  -10.2509    0.0000 H   0  0  0  0  0  0  0  0  0  0  0  0
   12.3119   -9.6309    0.0000 H   0  0  0  0  0  0  0  0  0  0  0  0
    5.3837   -7.2509    0.0000 H   0  0  0  0  0  0  0  0  0  0  0  0
    5.9207   -9.5609    0.0000 H   0  0  0  0  0  0  0  0  0  0  0  0
   14.2518  -10.7509    0.0000 H   0  0  0  0  0  0  0  0  0  0  0  0
    8.8478  -10.2509    0.0000 H   0  0  0  0  0  0  0  0  0  0  0  0
   13.7149  -12.0609    0.0000 H   0  0  0  0  0  0  0  0  0  0  0  0
   11.3723  -11.3332    0.0000 H   0  0  0  0  0  0  0  0  0  0  0  0
   11.7708  -12.0235    0.0000 H   0  0  0  0  0  0  0  0  0  0  0  0
   12.3119  -12.2509    0.0000 H   0  0  0  0  0  0  0  0  0  0  0  0
   15.1179  -10.2509    0.0000 H   0  0  0  0  0  0  0  0  0  0  0  0
   14.5809  -12.5609    0.0000 H   0  0  0  0  0  0  0  0  0  0  0  0
   12.3119  -13.2509    0.0000 H   0  0  0  0  0  0  0  0  0  0  0  0
  1 40  1  0  0  0  0
  1 48  1  0  0  0  0
  2 46  2  0  0  0  0
 48  3  1  6  0  0  0
  3128  1  0  0  0  0
 54  4  1  1  0  0  0
 59  4  1  1  0  0  0
  5 59  1  0  0  0  0
  5 64  1  0  0  0  0
  6 61  1  0  0  0  0
 67  6  1  6  0  0  0
 60  7  1  6  0  0  0
  7142  1  0  0  0  0
 63  8  1  1  0  0  0
  8145  1  0  0  0  0
 65  9  1  1  0  0  0
 68  9  1  1  0  0  0
 10 66  1  0  0  0  0
 10149  1  0  0  0  0
 11 67  1  0  0  0  0
 11 72  1  0  0  0  0
 12 68  1  0  0  0  0
 12 75  1  0  0  0  0
 69 13  1  1  0  0  0
 13156  1  0  0  0  0
 71 14  1  6  0  0  0
 79 14  1  1  0  0  0
 70 15  1  6  0  0  0
 15160  1  0  0  0  0
 73 16  1  1  0  0  0
 16161  1  0  0  0  0
 74 17  1  1  0  0  0
 80 17  1  6  0  0  0
 76 18  1  6  0  0  0
 18165  1  0  0  0  0
 19 77  1  0  0  0  0
 19167  1  0  0  0  0
 20 79  1  0  0  0  0
 20 84  1  0  0  0  0
 21 78  1  0  0  0  0
 21170  1  0  0  0  0
 22 80  1  0  0  0  0
 22 87  1  0  0  0  0
 81 23  1  6  0  0  0
 23175  1  0  0  0  0
 82 24  1  1  0  0  0
 90 24  1  1  0  0  0
 83 25  1  1  0  0  0
 25181  1  0  0  0  0
 85 26  1  6  0  0  0
 26182  1  0  0  0  0
 86 27  1  6  0  0  0
 27184  1  0  0  0  0
 88 28  1  1  0  0  0
 28185  1  0  0  0  0
 29 89  1  0  0  0  0
 29187  1  0  0  0  0
 30 90  1  0  0  0  0
 30 93  1  0  0  0  0
 91 31  1  6  0  0  0
 31192  1  0  0  0  0
 92 32  1  1  0  0  0
 32193  1  0  0  0  0
 94 33  1  6  0  0  0
 33194  1  0  0  0  0
 34 35  1  0  0  0  0
 34 36  1  0  0  0  0
 34 41  1  0  0  0  0
 34 95  1  6  0  0  0
 35 37  1  0  0  0  0
 35 46  1  0  0  0  0
 35 50  1  1  0  0  0
 36 38  1  0  0  0  0
 36 45  1  0  0  0  0
 36 96  1  1  0  0  0
 37 40  1  0  0  0  0
 37 43  1  0  0  0  0
 37 97  1  6  0  0  0
 38 39  1  0  0  0  0
 38 44  1  0  0  0  0
 38 98  1  6  0  0  0
 39 42  1  0  0  0  0
 39 49  1  0  0  0  0
 39 52  1  1  0  0  0
 40 41  1  0  0  0  0
 40 99  1  6  0  0  0
 41100  1  0  0  0  0
 41101  1  0  0  0  0
 42 47  1  0  0  0  0
 42 51  1  0  0  0  0
 42102  1  6  0  0  0
 43 48  1  0  0  0  0
 43 55  1  6  0  0  0
 43103  1  0  0  0  0
 44 46  1  0  0  0  0
 44104  1  0  0  0  0
 44105  1  0  0  0  0
 45 47  1  0  0  0  0
 45106  1  0  0  0  0
 45107  1  0  0  0  0
 47108  1  0  0  0  0
 47109  1  0  0  0  0
 48 56  1  0  0  0  0
 49 53  1  0  0  0  0
 49110  1  0  0  0  0
 49111  1  0  0  0  0
 50112  1  0  0  0  0
 50113  1  0  0  0  0
 50114  1  0  0  0  0
 51 54  1  0  0  0  0
 51115  1  0  0  0  0
 51116  1  0  0  0  0
 52117  1  0  0  0  0
 52118  1  0  0  0  0
 52119  1  0  0  0  0
 53 54  1  0  0  0  0
 53120  1  0  0  0  0
 53121  1  0  0  0  0
 54122  1  0  0  0  0
 55123  1  0  0  0  0
 55124  1  0  0  0  0
 55125  1  0  0  0  0
 56 57  1  0  0  0  0
 56126  1  0  0  0  0
 56127  1  0  0  0  0
 57 58  1  0  0  0  0
 57129  1  0  0  0  0
 57130  1  0  0  0  0
 58 61  1  0  0  0  0
 58 62  1  1  0  0  0
 58131  1  0  0  0  0
 59 60  1  0  0  0  0
 59132  1  0  0  0  0
 60 63  1  0  0  0  0
 60133  1  0  0  0  0
 61134  1  0  0  0  0
 61135  1  0  0  0  0
 62136  1  0  0  0  0
 62137  1  0  0  0  0
 62138  1  0  0  0  0
 63 65  1  0  0  0  0
 63139  1  0  0  0  0
 64 65  1  0  0  0  0
 64 66  1  1  0  0  0
 64140  1  0  0  0  0
 65141  1  0  0  0  0
 66143  1  0  0  0  0
 66144  1  0  0  0  0
 67 69  1  0  0  0  0
 67146  1  0  0  0  0
 68 71  1  0  0  0  0
 68147  1  0  0  0  0
 69 70  1  0  0  0  0
 69148  1  0  0  0  0
 70 73  1  0  0  0  0
 70150  1  0  0  0  0
 71 74  1  0  0  0  0
 71151  1  0  0  0  0
 72 73  1  0  0  0  0
 72 77  1  6  0  0  0
 72152  1  0  0  0  0
 73153  1  0  0  0  0
 74 76  1  0  0  0  0
 74154  1  0  0  0  0
 75 76  1  0  0  0  0
 75 78  1  1  0  0  0
 75155  1  0  0  0  0
 76157  1  0  0  0  0
 77158  1  0  0  0  0
 77159  1  0  0  0  0
 78162  1  0  0  0  0
 78163  1  0  0  0  0
 79 81  1  0  0  0  0
 79164  1  0  0  0  0
 80 83  1  0  0  0  0
 80166  1  0  0  0  0
 81 82  1  0  0  0  0
 81168  1  0  0  0  0
 82 85  1  0  0  0  0
 82169  1  0  0  0  0
 83 86  1  0  0  0  0
 83171  1  0  0  0  0
 84 85  1  0  0  0  0
 84 89  1  1  0  0  0
 84172  1  0  0  0  0
 85173  1  0  0  0  0
 86 88  1  0  0  0  0
 86174  1  0  0  0  0
 87 88  1  0  0  0  0
 87176  1  0  0  0  0
 87177  1  0  0  0  0
 88178  1  0  0  0  0
 89179  1  0  0  0  0
 89180  1  0  0  0  0
 90 91  1  0  0  0  0
 90183  1  0  0  0  0
 91 92  1  0  0  0  0
 91186  1  0  0  0  0
 92 94  1  0  0  0  0
 92188  1  0  0  0  0
 93 94  1  0  0  0  0
 93189  1  0  0  0  0
 93190  1  0  0  0  0
 94191  1  0  0  0  0
M  END
> <PUBCHEM_COMPOUND_CID>
11434838

> <PUBCHEM_COMPOUND_CANONICALIZED>
1

> <PUBCHEM_CACTVS_COMPLEXITY>
2500

> <PUBCHEM_CACTVS_HBOND_ACCEPTOR>
33

> <PUBCHEM_CACTVS_HBOND_DONOR>
19

> <PUBCHEM_CACTVS_ROTATABLE_BOND>
20

> <PUBCHEM_CACTVS_SUBSKEYS>
AAADcfB8PgAAAAAAAAAAAAAAAAAAAaIAAAA0aNEiQAASAGDAAAAAGgAACAAADxSwgAMCCAAABgAIAIAQAAAAAAAAAAAAAAEAAAAREBIAAAAiQAAFAAAHAAHK7PzPgAAAAAAAAADAAAYAACAAAYAADAAAAA==

> <PUBCHEM_IUPAC_OPENEYE_NAME>
(1R,2S,4S,6R,7S,8R,9S,12S,13S,16S,18S)-16-[(2R,3R,4R,5R,6R)-5-[(2S,3R,4S,5R,6R)-3-[(2S,3R,4S,5R,6R)-3,5-dihydroxy-6-(hydroxymethyl)-4-[(2S,3R,4S,5R)-3,4,5-trihydroxytetrahydropyran-2-yl]oxy-tetrahydropyran-2-yl]oxy-5-hydroxy-6-(hydroxymethyl)-4-[(2S,3R,4S,5R)-3,4,5-trihydroxytetrahydropyran-2-yl]oxy-tetrahydropyran-2-yl]oxy-3,4-dihydroxy-6-(hydroxymethyl)tetrahydropyran-2-yl]oxy-6-hydroxy-7,9,13-trimethyl-6-[(3R)-3-methyl-4-[(2R,3R,4S,5S,6R)-3,4,5-trihydroxy-6-(hydroxymethyl)tetrahydropyran-2-yl]oxy-butyl]-5-oxapentacyclo[10.8.0.02,9.04,8.013,18]icosan-10-one

> <PUBCHEM_IUPAC_CAS_NAME>
(1R,2S,4S,6R,7S,8R,9S,12S,13S,16S,18S)-16-[[(2R,3R,4R,5R,6R)-5-[[(2S,3R,4S,5R,6R)-3-[[(2S,3R,4S,5R,6R)-3,5-dihydroxy-6-(hydroxymethyl)-4-[[(2S,3R,4S,5R)-3,4,5-trihydroxy-2-oxanyl]oxy]-2-oxanyl]oxy]-5-hydroxy-6-(hydroxymethyl)-4-[[(2S,3R,4S,5R)-3,4,5-trihydroxy-2-oxanyl]oxy]-2-oxanyl]oxy]-3,4-dihydroxy-6-(hydroxymethyl)-2-oxanyl]oxy]-6-hydroxy-7,9,13-trimethyl-6-[(3R)-3-methyl-4-[[(2R,3R,4S,5S,6R)-3,4,5-trihydroxy-6-(hydroxymethyl)-2-oxanyl]oxy]butyl]-5-oxapentacyclo[10.8.0.02,9.04,8.013,18]eicosan-10-one

> <PUBCHEM_IUPAC_NAME_MARKUP>
(1<I>R</I>,2<I>S</I>,4<I>S</I>,6<I>R</I>,7<I>S</I>,8<I>R</I>,9<I>S</I>,12<I>S</I>,13<I>S</I>,16<I>S</I>,18<I>S</I>)-16-[(2<I>R</I>,3<I>R</I>,4<I>R</I>,5<I>R</I>,6<I>R</I>)-5-[(2<I>S</I>,3<I>R</I>,4<I>S</I>,5<I>R</I>,6<I>R</I>)-3-[(2<I>S</I>,3<I>R</I>,4<I>S</I>,5<I>R</I>,6<I>R</I>)-3,5-dihydroxy-6-(hydroxymethyl)-4-[(2<I>S</I>,3<I>R</I>,4<I>S</I>,5<I>R</I>)-3,4,5-trihydroxyoxan-2-yl]oxyoxan-2-yl]oxy-5-hydroxy-6-(hydroxymethyl)-4-[(2<I>S</I>,3<I>R</I>,4<I>S</I>,5<I>R</I>)-3,4,5-trihydroxyoxan-2-yl]oxyoxan-2-yl]oxy-3,4-dihydroxy-6-(hydroxymethyl)oxan-2-yl]oxy-6-hydroxy-7,9,13-trimethyl-6-[(3<I>R</I>)-3-methyl-4-[(2<I>R</I>,3<I>R</I>,4<I>S</I>,5<I>S</I>,6<I>R</I>)-3,4,5-trihydroxy-6-(hydroxymethyl)oxan-2-yl]oxybutyl]-5-oxapentacyclo[10.8.0.0<SUP>2,9</SUP>.0<SUP>4,8</SUP>.0<SUP>13,18</SUP>]icosan-10-one

> <PUBCHEM_IUPAC_NAME>
(1R,2S,4S,6R,7S,8R,9S,12S,13S,16S,18S)-16-[(2R,3R,4R,5R,6R)-5-[(2S,3R,4S,5R,6R)-3-[(2S,3R,4S,5R,6R)-3,5-dihydroxy-6-(hydroxymethyl)-4-[(2S,3R,4S,5R)-3,4,5-trihydroxyoxan-2-yl]oxyoxan-2-yl]oxy-5-hydroxy-6-(hydroxymethyl)-4-[(2S,3R,4S,5R)-3,4,5-trihydroxyoxan-2-yl]oxyoxan-2-yl]oxy-3,4-dihydroxy-6-(hydroxymethyl)oxan-2-yl]oxy-6-hydroxy-7,9,13-trimethyl-6-[(3R)-3-methyl-4-[(2R,3R,4S,5S,6R)-3,4,5-trihydroxy-6-(hydroxymethyl)oxan-2-yl]oxybutyl]-5-oxapentacyclo[10.8.0.02,9.04,8.013,18]icosan-10-one

> <PUBCHEM_IUPAC_SYSTEMATIC_NAME>
(1R,2S,4S,6R,7S,8R,9S,12S,13S,16S,18S)-16-[(2R,3R,4R,5R,6R)-6-(hydroxymethyl)-5-[(2S,3R,4S,5R,6R)-6-(hydroxymethyl)-3-[(2S,3R,4S,5R,6R)-6-(hydroxymethyl)-3,5-bis(oxidanyl)-4-[(2S,3R,4S,5R)-3,4,5-tris(oxidanyl)oxan-2-yl]oxy-oxan-2-yl]oxy-5-oxidanyl-4-[(2S,3R,4S,5R)-3,4,5-tris(oxidanyl)oxan-2-yl]oxy-oxan-2-yl]oxy-3,4-bis(oxidanyl)oxan-2-yl]oxy-6-[(3R)-4-[(2R,3R,4S,5S,6R)-6-(hydroxymethyl)-3,4,5-tris(oxidanyl)oxan-2-yl]oxy-3-methyl-butyl]-7,9,13-trimethyl-6-oxidanyl-5-oxapentacyclo[10.8.0.02,9.04,8.013,18]icosan-10-one

> <PUBCHEM_IUPAC_TRADITIONAL_NAME>
(1R,2S,4S,6R,7S,8R,9S,12S,13S,16S,18S)-16-[(2R,3R,4R,5R,6R)-5-[(2S,3R,4S,5R,6R)-3-[(2S,3R,4S,5R,6R)-3,5-dihydroxy-6-methylol-4-[(2S,3R,4S,5R)-3,4,5-trihydroxytetrahydropyran-2-yl]oxy-tetrahydropyran-2-yl]oxy-5-hydroxy-6-methylol-4-[(2S,3R,4S,5R)-3,4,5-trihydroxytetrahydropyran-2-yl]oxy-tetrahydropyran-2-yl]oxy-3,4-dihydroxy-6-methylol-tetrahydropyran-2-yl]oxy-6-hydroxy-7,9,13-trimethyl-6-[(3R)-3-methyl-4-[(2R,3R,4S,5S,6R)-3,4,5-trihydroxy-6-methylol-tetrahydropyran-2-yl]oxy-butyl]-5-oxapentacyclo[10.8.0.02,9.04,8.013,18]eicosan-10-one

> <PUBCHEM_IUPAC_INCHI>
InChI=1S/C61H100O33/c1-21(18-82-53-46(78)42(74)39(71)31(14-62)86-53)7-10-61(81)22(2)36-30(94-61)12-27-25-6-5-23-11-24(8-9-59(23,3)26(25)13-35(68)60(27,36)4)85-56-47(79)43(75)49(34(17-65)89-56)90-58-52(51(41(73)33(16-64)88-58)92-55-45(77)38(70)29(67)20-84-55)93-57-48(80)50(40(72)32(15-63)87-57)91-54-44(76)37(69)28(66)19-83-54/h21-34,36-58,62-67,69-81H,5-20H2,1-4H3/t21-,22+,23+,24+,25-,26+,27+,28-,29-,30+,31-,32-,33-,34-,36+,37+,38+,39-,40-,41-,42+,43-,44-,45-,46-,47-,48-,49+,50+,51+,52-,53-,54+,55+,56-,57+,58+,59+,60-,61-/m1/s1

> <PUBCHEM_IUPAC_INCHIKEY>
IKHQZZXKLQHTRB-XALNJSHHSA-N

> <PUBCHEM_XLOGP3_AA>
-6.1

> <PUBCHEM_EXACT_MASS>
1360.614686

> <PUBCHEM_MOLECULAR_FORMULA>
C61H100O33

> <PUBCHEM_MOLECULAR_WEIGHT>
1361.4

> <PUBCHEM_OPENEYE_CAN_SMILES>
CC1C2C(CC3C2(C(=O)CC4C3CCC5C4(CCC(C5)OC6C(C(C(C(O6)CO)OC7C(C(C(C(O7)CO)O)OC8C(C(C(CO8)O)O)O)OC9C(C(C(C(O9)CO)O)OC2C(C(C(CO2)O)O)O)O)O)O)C)C)OC1(CCC(C)COC1C(C(C(C(O1)CO)O)O)O)O

> <PUBCHEM_OPENEYE_ISO_SMILES>
C[C@H]1[C@H]2[C@H](C[C@@H]3[C@@]2(C(=O)C[C@H]4[C@H]3CC[C@@H]5[C@@]4(CC[C@@H](C5)O[C@H]6[C@@H]([C@H]([C@H]([C@H](O6)CO)O[C@H]7[C@@H]([C@H]([C@@H]([C@H](O7)CO)O)O[C@H]8[C@@H]([C@H]([C@@H](CO8)O)O)O)O[C@H]9[C@@H]([C@H]([C@@H]([C@H](O9)CO)O)O[C@H]2[C@@H]([C@H]([C@@H](CO2)O)O)O)O)O)O)C)C)O[C@@]1(CC[C@@H](C)CO[C@H]1[C@@H]([C@H]([C@@H]([C@H](O1)CO)O)O)O)O

> <PUBCHEM_CACTVS_TPSA>
521

> <PUBCHEM_MONOISOTOPIC_WEIGHT>
1360.614686

> <PUBCHEM_TOTAL_CHARGE>
0

> <PUBCHEM_HEAVY_ATOM_COUNT>
94

> <PUBCHEM_ATOM_DEF_STEREO_COUNT>
40

> <PUBCHEM_ATOM_UDEF_STEREO_COUNT>
0

> <PUBCHEM_BOND_DEF_STEREO_COUNT>
0

> <PUBCHEM_BOND_UDEF_STEREO_COUNT>
0

> <PUBCHEM_ISOTOPIC_ATOM_COUNT>
0

> <PUBCHEM_COMPONENT_COUNT>
1

> <PUBCHEM_CACTVS_TAUTO_COUNT>
-1

> <PUBCHEM_COORDINATE_TYPE>
1
5
255

> <PUBCHEM_BONDANNOTATIONS>
69  13  5
71  14  6
79  14  5
70  15  6
73  16  5
74  17  5
80  17  6
76  18  6
81  23  6
82  24  5
90  24  5
83  25  5
85  26  6
86  27  6
88  28  5
48  3  6
91  31  6
92  32  5
94  33  6
34  95  6
35  50  5
36  96  5
37  97  6
38  98  6
39  52  5
54  4  5
59  4  5
40  99  6
42  102  6
43  55  6
58  62  5
67  6  6
64  66  5
60  7  6
72  77  6
75  78  5
63  8  5
84  89  5
65  9  5
68  9  5

$$$$
