44258844
  -OEChem-08312002002D

 93 98  0     1  0  0  0  0  0999 V2000
    6.9343   -0.2500    0.0000 O   0  0  0  0  0  0  0  0  0  0  0  0
    6.0682   -2.7500    0.0000 O   0  0  0  0  0  0  0  0  0  0  0  0
    4.3362   -2.7500    0.0000 O   0  0  0  0  0  0  0  0  0  0  0  0
    7.8003   -2.7500    0.0000 O   0  0  0  0  0  0  0  0  0  0  0  0
    7.8003    1.2500    0.0000 O   0  0  0  0  0  0  0  0  0  0  0  0
    9.5323   -1.7500    0.0000 O   0  0  0  0  0  0  0  0  0  0  0  0
    9.5323    0.2500    0.0000 O   0  0  0  0  0  0  0  0  0  0  0  0
   11.2644    3.2500    0.0000 O   0  0  0  0  0  0  0  0  0  0  0  0
    6.0682   -4.7500    0.0000 O   0  0  0  0  0  0  0  0  0  0  0  0
    4.3362   -5.7500    0.0000 O   0  0  0  0  0  0  0  0  0  0  0  0
    2.6042   -4.7500    0.0000 O   0  0  0  0  0  0  0  0  0  0  0  0
   10.3984    4.7500    0.0000 O   0  0  0  0  0  0  0  0  0  0  0  0
   13.8625    4.7500    0.0000 O   0  0  0  0  0  0  0  0  0  0  0  0
   13.8625    2.7500    0.0000 O   0  0  0  0  0  0  0  0  0  0  0  0
   12.1304    5.7500    0.0000 O   0  0  0  0  0  0  0  0  0  0  0  0
   12.9965    1.2500    0.0000 O   0  0  0  0  0  0  0  0  0  0  0  0
    6.0682    3.2500    0.0000 O   0  0  0  0  0  0  0  0  0  0  0  0
    6.0682    0.2500    0.0000 O   0  0  0  0  0  0  0  0  0  0  0  0
    4.3198    0.2154    0.0000 O   0  0  0  0  0  0  0  0  0  0  0  0
    2.5381    3.2742    0.0000 O   0  0  0  0  0  0  0  0  0  0  0  0
    6.9343   -1.2500    0.0000 C   0  0  3  0  0  0  0  0  0  0  0  0
    7.8003   -1.7500    0.0000 C   0  0  2  0  0  0  0  0  0  0  0  0
    8.6663   -1.2500    0.0000 C   0  0  3  0  0  0  0  0  0  0  0  0
    8.6663   -0.2500    0.0000 C   0  0  3  0  0  0  0  0  0  0  0  0
    5.2022   -4.2500    0.0000 C   0  0  3  0  0  0  0  0  0  0  0  0
    5.2022   -3.2500    0.0000 C   0  0  2  0  0  0  0  0  0  0  0  0
    4.3362   -4.7500    0.0000 C   0  0  2  0  0  0  0  0  0  0  0  0
    3.4702   -4.2500    0.0000 C   0  0  2  0  0  0  0  0  0  0  0  0
    7.8003    0.2500    0.0000 C   0  0  1  0  0  0  0  0  0  0  0  0
    6.0682   -1.7500    0.0000 C   0  0  0  0  0  0  0  0  0  0  0  0
    3.4702   -3.2500    0.0000 C   0  0  3  0  0  0  0  0  0  0  0  0
   12.9965    4.2500    0.0000 C   0  0  3  0  0  0  0  0  0  0  0  0
   12.9965    3.2500    0.0000 C   0  0  1  0  0  0  0  0  0  0  0  0
   12.1304    4.7500    0.0000 C   0  0  2  0  0  0  0  0  0  0  0  0
   12.1304    2.7500    0.0000 C   0  0  3  0  0  0  0  0  0  0  0  0
   11.2644    4.2500    0.0000 C   0  0  1  0  0  0  0  0  0  0  0  0
    2.6042   -2.7500    0.0000 C   0  0  0  0  0  0  0  0  0  0  0  0
   12.1304    1.7500    0.0000 C   0  0  0  0  0  0  0  0  0  0  0  0
    6.9343    1.7500    0.0000 C   0  0  0  0  0  0  0  0  0  0  0  0
    6.9343    2.7500    0.0000 C   0  0  0  0  0  0  0  0  0  0  0  0
    9.5323    4.2500    0.0000 C   0  0  0  0  0  0  0  0  0  0  0  0
    6.0682    1.2500    0.0000 C   0  0  0  0  0  0  0  0  0  0  0  0
    7.8003    3.2500    0.0000 C   0  0  0  0  0  0  0  0  0  0  0  0
    5.2022    1.7500    0.0000 C   0  0  0  0  0  0  0  0  0  0  0  0
    8.6663    4.7500    0.0000 C   0  0  0  0  0  0  0  0  0  0  0  0
    9.5323    3.2500    0.0000 C   0  0  0  0  0  0  0  0  0  0  0  0
    7.8003    4.2500    0.0000 C   0  0  0  0  0  0  0  0  0  0  0  0
    8.6663    2.7500    0.0000 C   0  0  0  0  0  0  0  0  0  0  0  0
    5.2022    2.7500    0.0000 C   0  0  0  0  0  0  0  0  0  0  0  0
    4.3083    1.2153    0.0000 C   0  0  0  0  0  0  0  0  0  0  0  0
    4.3083    3.2847    0.0000 C   0  0  0  0  0  0  0  0  0  0  0  0
    3.4022    1.7292    0.0000 C   0  0  0  0  0  0  0  0  0  0  0  0
    3.4022    2.7708    0.0000 C   0  0  0  0  0  0  0  0  0  0  0  0
    6.3973   -0.9400    0.0000 H   0  0  0  0  0  0  0  0  0  0  0  0
    8.3372   -2.0600    0.0000 H   0  0  0  0  0  0  0  0  0  0  0  0
    9.2033   -0.9400    0.0000 H   0  0  0  0  0  0  0  0  0  0  0  0
    9.2033   -0.5600    0.0000 H   0  0  0  0  0  0  0  0  0  0  0  0
    5.2022   -4.8700    0.0000 H   0  0  0  0  0  0  0  0  0  0  0  0
    5.2022   -2.6300    0.0000 H   0  0  0  0  0  0  0  0  0  0  0  0
    3.7993   -5.0600    0.0000 H   0  0  0  0  0  0  0  0  0  0  0  0
    2.9332   -3.9400    0.0000 H   0  0  0  0  0  0  0  0  0  0  0  0
    8.3372    0.5600    0.0000 H   0  0  0  0  0  0  0  0  0  0  0  0
    5.8562   -1.1674    0.0000 H   0  0  0  0  0  0  0  0  0  0  0  0
    5.4577   -1.8577    0.0000 H   0  0  0  0  0  0  0  0  0  0  0  0
    3.4702   -2.6300    0.0000 H   0  0  0  0  0  0  0  0  0  0  0  0
   12.9965    4.8700    0.0000 H   0  0  0  0  0  0  0  0  0  0  0  0
   13.5334    3.5600    0.0000 H   0  0  0  0  0  0  0  0  0  0  0  0
   12.6674    5.0600    0.0000 H   0  0  0  0  0  0  0  0  0  0  0  0
   11.5935    2.4400    0.0000 H   0  0  0  0  0  0  0  0  0  0  0  0
   11.2644    4.8700    0.0000 H   0  0  0  0  0  0  0  0  0  0  0  0
    2.9141   -2.2131    0.0000 H   0  0  0  0  0  0  0  0  0  0  0  0
    2.0672   -2.4400    0.0000 H   0  0  0  0  0  0  0  0  0  0  0  0
    2.2942   -3.2869    0.0000 H   0  0  0  0  0  0  0  0  0  0  0  0
    8.3372   -3.0600    0.0000 H   0  0  0  0  0  0  0  0  0  0  0  0
   10.0693   -1.4400    0.0000 H   0  0  0  0  0  0  0  0  0  0  0  0
    9.5323    0.8700    0.0000 H   0  0  0  0  0  0  0  0  0  0  0  0
    6.6052   -4.4400    0.0000 H   0  0  0  0  0  0  0  0  0  0  0  0
    3.7993   -6.0600    0.0000 H   0  0  0  0  0  0  0  0  0  0  0  0
    2.0672   -4.4400    0.0000 H   0  0  0  0  0  0  0  0  0  0  0  0
   11.5198    1.8577    0.0000 H   0  0  0  0  0  0  0  0  0  0  0  0
   11.9184    1.1674    0.0000 H   0  0  0  0  0  0  0  0  0  0  0  0
   14.3994    4.4400    0.0000 H   0  0  0  0  0  0  0  0  0  0  0  0
   14.3994    3.0600    0.0000 H   0  0  0  0  0  0  0  0  0  0  0  0
   12.6674    6.0600    0.0000 H   0  0  0  0  0  0  0  0  0  0  0  0
   12.9965    0.6300    0.0000 H   0  0  0  0  0  0  0  0  0  0  0  0
    8.6663    5.3700    0.0000 H   0  0  0  0  0  0  0  0  0  0  0  0
   10.0693    2.9400    0.0000 H   0  0  0  0  0  0  0  0  0  0  0  0
    7.2634    4.5600    0.0000 H   0  0  0  0  0  0  0  0  0  0  0  0
    8.6663    2.1300    0.0000 H   0  0  0  0  0  0  0  0  0  0  0  0
    4.3154    3.9046    0.0000 H   0  0  0  0  0  0  0  0  0  0  0  0
    2.8665    1.4171    0.0000 H   0  0  0  0  0  0  0  0  0  0  0  0
    3.7865   -0.1008    0.0000 H   0  0  0  0  0  0  0  0  0  0  0  0
    2.0000    2.9662    0.0000 H   0  0  0  0  0  0  0  0  0  0  0  0
  1 21  1  0  0  0  0
  1 29  1  0  0  0  0
 26  2  1  1  0  0  0
  2 30  1  0  0  0  0
  3 26  1  0  0  0  0
  3 31  1  0  0  0  0
 22  4  1  6  0  0  0
  4 74  1  0  0  0  0
 29  5  1  1  0  0  0
  5 39  1  0  0  0  0
  6 23  1  0  0  0  0
  6 75  1  0  0  0  0
  7 24  1  0  0  0  0
  7 76  1  0  0  0  0
  8 35  1  0  0  0  0
  8 36  1  0  0  0  0
  9 25  1  0  0  0  0
  9 77  1  0  0  0  0
 27 10  1  1  0  0  0
 10 78  1  0  0  0  0
 28 11  1  1  0  0  0
 11 79  1  0  0  0  0
 36 12  1  1  0  0  0
 12 41  1  0  0  0  0
 13 32  1  0  0  0  0
 13 82  1  0  0  0  0
 33 14  1  6  0  0  0
 14 83  1  0  0  0  0
 34 15  1  6  0  0  0
 15 84  1  0  0  0  0
 16 38  1  0  0  0  0
 16 85  1  0  0  0  0
 17 40  1  0  0  0  0
 17 49  1  0  0  0  0
 18 42  2  0  0  0  0
 19 50  1  0  0  0  0
 19 92  1  0  0  0  0
 20 53  1  0  0  0  0
 20 93  1  0  0  0  0
 21 22  1  0  0  0  0
 21 30  1  0  0  0  0
 21 54  1  0  0  0  0
 22 23  1  0  0  0  0
 22 55  1  0  0  0  0
 23 24  1  0  0  0  0
 23 56  1  0  0  0  0
 24 29  1  0  0  0  0
 24 57  1  0  0  0  0
 25 26  1  0  0  0  0
 25 27  1  0  0  0  0
 25 58  1  0  0  0  0
 26 59  1  0  0  0  0
 27 28  1  0  0  0  0
 27 60  1  0  0  0  0
 28 31  1  0  0  0  0
 28 61  1  0  0  0  0
 29 62  1  0  0  0  0
 30 63  1  0  0  0  0
 30 64  1  0  0  0  0
 31 37  1  0  0  0  0
 31 65  1  0  0  0  0
 32 33  1  0  0  0  0
 32 34  1  0  0  0  0
 32 66  1  0  0  0  0
 33 35  1  0  0  0  0
 33 67  1  0  0  0  0
 34 36  1  0  0  0  0
 34 68  1  0  0  0  0
 35 38  1  0  0  0  0
 35 69  1  0  0  0  0
 36 70  1  0  0  0  0
 37 71  1  0  0  0  0
 37 72  1  0  0  0  0
 37 73  1  0  0  0  0
 38 80  1  0  0  0  0
 38 81  1  0  0  0  0
 39 40  2  0  0  0  0
 39 42  1  0  0  0  0
 40 43  1  0  0  0  0
 41 45  2  0  0  0  0
 41 46  1  0  0  0  0
 42 44  1  0  0  0  0
 43 47  2  0  0  0  0
 43 48  1  0  0  0  0
 44 49  1  0  0  0  0
 44 50  2  0  0  0  0
 45 47  1  0  0  0  0
 45 86  1  0  0  0  0
 46 48  2  0  0  0  0
 46 87  1  0  0  0  0
 47 88  1  0  0  0  0
 48 89  1  0  0  0  0
 49 51  2  0  0  0  0
 50 52  1  0  0  0  0
 51 53  1  0  0  0  0
 51 90  1  0  0  0  0
 52 53  2  0  0  0  0
 52 91  1  0  0  0  0
M  END
> <PUBCHEM_COMPOUND_CID>
44258844

> <PUBCHEM_COMPOUND_CANONICALIZED>
1

> <PUBCHEM_CACTVS_COMPLEXITY>
1280

> <PUBCHEM_CACTVS_HBOND_ACCEPTOR>
20

> <PUBCHEM_CACTVS_HBOND_DONOR>
12

> <PUBCHEM_CACTVS_ROTATABLE_BOND>
9

> <PUBCHEM_CACTVS_SUBSKEYS>
AAADcfB8PgAAAAAAAAAAAAAAAAAAAAAAAAA0aJECAAAAAACBQAAAGgAACAAADBSwmAMyDoAABgCIAqBSAAICCAAkIAAIiAFGCMgdNzaGNR6ieWCl4BUPuQfI7KzOIAAACAAIAABAAAAQABAAAAAAAAAAAA==

> <PUBCHEM_IUPAC_OPENEYE_NAME>
5,7-dihydroxy-2-[4-[(2S,3R,5S)-3,4,5-trihydroxy-6-(hydroxymethyl)tetrahydropyran-2-yl]oxyphenyl]-3-[(2S,5S)-3,4,5-trihydroxy-6-[[(2R,4S,5R)-3,4,5-trihydroxy-6-methyl-tetrahydropyran-2-yl]oxymethyl]tetrahydropyran-2-yl]oxy-chromen-4-one

> <PUBCHEM_IUPAC_CAS_NAME>
5,7-dihydroxy-2-[4-[[(2S,3R,5S)-3,4,5-trihydroxy-6-(hydroxymethyl)-2-oxanyl]oxy]phenyl]-3-[[(2S,5S)-3,4,5-trihydroxy-6-[[(2R,4S,5R)-3,4,5-trihydroxy-6-methyl-2-oxanyl]oxymethyl]-2-oxanyl]oxy]-1-benzopyran-4-one

> <PUBCHEM_IUPAC_NAME_MARKUP>
5,7-dihydroxy-2-[4-[(2<I>S</I>,3<I>R</I>,5<I>S</I>)-3,4,5-trihydroxy-6-(hydroxymethyl)oxan-2-yl]oxyphenyl]-3-[(2<I>S</I>,5<I>S</I>)-3,4,5-trihydroxy-6-[[(2<I>R</I>,4<I>S</I>,5<I>R</I>)-3,4,5-trihydroxy-6-methyloxan-2-yl]oxymethyl]oxan-2-yl]oxychromen-4-one

> <PUBCHEM_IUPAC_NAME>
5,7-dihydroxy-2-[4-[(2S,3R,5S)-3,4,5-trihydroxy-6-(hydroxymethyl)oxan-2-yl]oxyphenyl]-3-[(2S,5S)-3,4,5-trihydroxy-6-[[(2R,4S,5R)-3,4,5-trihydroxy-6-methyloxan-2-yl]oxymethyl]oxan-2-yl]oxychromen-4-one

> <PUBCHEM_IUPAC_SYSTEMATIC_NAME>
2-[4-[(2S,3R,5S)-6-(hydroxymethyl)-3,4,5-tris(oxidanyl)oxan-2-yl]oxyphenyl]-3-[(2S,5S)-6-[[(2R,4S,5R)-6-methyl-3,4,5-tris(oxidanyl)oxan-2-yl]oxymethyl]-3,4,5-tris(oxidanyl)oxan-2-yl]oxy-5,7-bis(oxidanyl)chromen-4-one

> <PUBCHEM_IUPAC_TRADITIONAL_NAME>
5,7-dihydroxy-2-[4-[(2S,3R,5S)-3,4,5-trihydroxy-6-methylol-tetrahydropyran-2-yl]oxyphenyl]-3-[(2S,5S)-3,4,5-trihydroxy-6-[[(2R,4S,5R)-3,4,5-trihydroxy-6-methyl-tetrahydropyran-2-yl]oxymethyl]tetrahydropyran-2-yl]oxy-chromone

> <PUBCHEM_IUPAC_INCHI>
InChI=1S/C33H40O20/c1-10-19(37)23(41)26(44)31(48-10)47-9-17-21(39)25(43)28(46)33(52-17)53-30-22(40)18-14(36)6-12(35)7-15(18)50-29(30)11-2-4-13(5-3-11)49-32-27(45)24(42)20(38)16(8-34)51-32/h2-7,10,16-17,19-21,23-28,31-39,41-46H,8-9H2,1H3/t10?,16?,17?,19-,20+,21+,23-,24?,25?,26?,27+,28?,31+,32+,33-/m0/s1

> <PUBCHEM_IUPAC_INCHIKEY>
FYJOVKRHRUYSLY-UVBZURFESA-N

> <PUBCHEM_XLOGP3_AA>
-2.7

> <PUBCHEM_EXACT_MASS>
756.211294

> <PUBCHEM_MOLECULAR_FORMULA>
C33H40O20

> <PUBCHEM_MOLECULAR_WEIGHT>
756.7

> <PUBCHEM_OPENEYE_CAN_SMILES>
CC1C(C(C(C(O1)OCC2C(C(C(C(O2)OC3=C(OC4=CC(=CC(=C4C3=O)O)O)C5=CC=C(C=C5)OC6C(C(C(C(O6)CO)O)O)O)O)O)O)O)O)O

> <PUBCHEM_OPENEYE_ISO_SMILES>
CC1[C@@H]([C@@H](C([C@@H](O1)OCC2[C@H](C(C([C@@H](O2)OC3=C(OC4=CC(=CC(=C4C3=O)O)O)C5=CC=C(C=C5)O[C@H]6[C@@H](C([C@@H](C(O6)CO)O)O)O)O)O)O)O)O)O

> <PUBCHEM_CACTVS_TPSA>
324

> <PUBCHEM_MONOISOTOPIC_WEIGHT>
756.211294

> <PUBCHEM_TOTAL_CHARGE>
0

> <PUBCHEM_HEAVY_ATOM_COUNT>
53

> <PUBCHEM_ATOM_DEF_STEREO_COUNT>
8

> <PUBCHEM_ATOM_UDEF_STEREO_COUNT>
7

> <PUBCHEM_BOND_DEF_STEREO_COUNT>
0

> <PUBCHEM_BOND_UDEF_STEREO_COUNT>
0

> <PUBCHEM_ISOTOPIC_ATOM_COUNT>
0

> <PUBCHEM_COMPONENT_COUNT>
1

> <PUBCHEM_CACTVS_TAUTO_COUNT>
-1

> <PUBCHEM_COORDINATE_TYPE>
1
5
255

> <PUBCHEM_BONDANNOTATIONS>
27  10  5
28  11  5
36  12  5
32  13  3
33  14  6
34  15  6
17  40  8
17  49  8
26  2  5
21  30  3
31  37  3
35  38  3
39  40  8
39  42  8
22  4  6
41  45  8
41  46  8
42  44  8
43  47  8
43  48  8
44  49  8
44  50  8
45  47  8
46  48  8
49  51  8
29  5  5
50  52  8
51  53  8
52  53  8
23  6  3
24  7  3
25  9  3

$$$$
