192451
  -OEChem-08312002312D

178188  0     1  0  0  0  0  0999 V2000
    5.5982    7.7624    0.0000 O   0  0  0  0  0  0  0  0  0  0  0  0
    3.9370    6.6748    0.0000 O   0  0  0  0  0  0  0  0  0  0  0  0
   12.0262    2.4079    0.0000 O   0  0  0  0  0  0  0  0  0  0  0  0
   11.1602    0.9079    0.0000 O   0  0  0  0  0  0  0  0  0  0  0  0
   13.7583    1.4079    0.0000 O   0  0  0  0  0  0  0  0  0  0  0  0
   13.7583   -0.5921    0.0000 O   0  0  0  0  0  0  0  0  0  0  0  0
   12.0262   -1.5921    0.0000 O   0  0  0  0  0  0  0  0  0  0  0  0
    9.4281   -0.0921    0.0000 O   0  0  0  0  0  0  0  0  0  0  0  0
   10.2942   -1.5921    0.0000 O   0  0  0  0  0  0  0  0  0  0  0  0
   12.0262   -3.5921    0.0000 O   0  0  0  0  0  0  0  0  0  0  0  0
   10.2942   -4.5921    0.0000 O   0  0  0  0  0  0  0  0  0  0  0  0
    8.5621   -3.5921    0.0000 O   0  0  0  0  0  0  0  0  0  0  0  0
   13.6538   -4.1845    0.0000 O   0  0  0  0  0  0  0  0  0  0  0  0
    8.5621   -0.5921    0.0000 O   0  0  0  0  0  0  0  0  0  0  0  0
    8.5621   -4.5921    0.0000 O   0  0  0  0  0  0  0  0  0  0  0  0
   11.3421   -5.4714    0.0000 O   0  0  0  0  0  0  0  0  0  0  0  0
   12.6278   -7.0035    0.0000 O   0  0  0  0  0  0  0  0  0  0  0  0
   10.2942   -6.5921    0.0000 O   0  0  0  0  0  0  0  0  0  0  0  0
   14.5974   -6.6562    0.0000 O   0  0  0  0  0  0  0  0  0  0  0  0
    8.5621   -7.5921    0.0000 O   0  0  0  0  0  0  0  0  0  0  0  0
    6.8300   -6.5921    0.0000 O   0  0  0  0  0  0  0  0  0  0  0  0
   15.6234   -3.8372    0.0000 O   0  0  0  0  0  0  0  0  0  0  0  0
   15.9242   -5.5429    0.0000 O   0  0  0  0  0  0  0  0  0  0  0  0
    6.8300   -3.5921    0.0000 O   0  0  0  0  0  0  0  0  0  0  0  0
   15.8830   -8.1883    0.0000 O   0  0  0  0  0  0  0  0  0  0  0  0
   17.8525   -7.8410    0.0000 O   0  0  0  0  0  0  0  0  0  0  0  0
   18.5366   -5.9617    0.0000 O   0  0  0  0  0  0  0  0  0  0  0  0
    6.6742    5.5317    0.0000 C   0  0  3  0  0  0  0  0  0  0  0  0
    7.5383    6.0350    0.0000 C   0  0  3  0  0  0  0  0  0  0  0  0
    8.4062    5.5384    0.0000 C   0  0  3  0  0  0  0  0  0  0  0  0
    5.9346    6.1959    0.0000 C   0  0  3  0  0  0  0  0  0  0  0  0
    8.4101    4.5384    0.0000 C   0  0  3  0  0  0  0  0  0  0  0  0
    6.3362    7.1053    0.0000 C   0  0  3  0  0  0  0  0  0  0  0  0
    9.3061    4.0072    0.0000 C   0  0  3  0  0  0  0  0  0  0  0  0
    7.3253    7.0060    0.0000 C   0  0  0  0  0  0  0  0  0  0  0  0
    6.6780    4.5317    0.0000 C   0  0  0  0  0  0  0  0  0  0  0  0
    7.5460    4.0350    0.0000 C   0  0  0  0  0  0  0  0  0  0  0  0
    4.9518    6.2988    0.0000 C   0  0  3  0  0  0  0  0  0  0  0  0
   10.2102    4.5245    0.0000 C   0  0  3  0  0  0  0  0  0  0  0  0
    9.2981    6.0765    0.0000 C   0  0  0  0  0  0  0  0  0  0  0  0
    4.7443    7.2650    0.0000 C   0  0  3  0  0  0  0  0  0  0  0  0
   10.2061    5.5661    0.0000 C   0  0  0  0  0  0  0  0  0  0  0  0
    5.8101    5.0284    0.0000 C   0  0  0  0  0  0  0  0  0  0  0  0
    9.2852    2.9224    0.0000 C   0  0  0  0  0  0  0  0  0  0  0  0
   11.1560    3.9929    0.0000 C   0  0  0  0  0  0  0  0  0  0  0  0
    8.4381    3.5105    0.0000 C   0  0  0  0  0  0  0  0  0  0  0  0
   10.2185    2.3691    0.0000 C   0  0  0  0  0  0  0  0  0  0  0  0
    4.2836    5.5549    0.0000 C   0  0  0  0  0  0  0  0  0  0  0  0
   11.1602    2.9079    0.0000 C   0  0  3  0  0  0  0  0  0  0  0  0
    4.6368    8.2592    0.0000 C   0  0  0  0  0  0  0  0  0  0  0  0
    3.7220    8.6632    0.0000 C   0  0  0  0  0  0  0  0  0  0  0  0
    3.0223    7.0788    0.0000 C   0  0  0  0  0  0  0  0  0  0  0  0
    2.9148    8.0730    0.0000 C   0  0  3  0  0  0  0  0  0  0  0  0
    2.0000    8.4770    0.0000 C   0  0  0  0  0  0  0  0  0  0  0  0
   12.0262    1.4079    0.0000 C   0  0  3  0  0  0  0  0  0  0  0  0
   12.8922    0.9079    0.0000 C   0  0  3  0  0  0  0  0  0  0  0  0
   12.8922   -0.0921    0.0000 C   0  0  3  0  0  0  0  0  0  0  0  0
   11.1602   -0.0921    0.0000 C   0  0  3  0  0  0  0  0  0  0  0  0
   12.0262   -0.5921    0.0000 C   0  0  3  0  0  0  0  0  0  0  0  0
   10.2942   -0.5921    0.0000 C   0  0  0  0  0  0  0  0  0  0  0  0
   11.1602   -2.0921    0.0000 C   0  0  3  0  0  0  0  0  0  0  0  0
   11.1602   -3.0921    0.0000 C   0  0  3  0  0  0  0  0  0  0  0  0
   10.2942   -3.5921    0.0000 C   0  0  3  0  0  0  0  0  0  0  0  0
    9.4281   -2.0921    0.0000 C   0  0  3  0  0  0  0  0  0  0  0  0
    9.4281   -3.0921    0.0000 C   0  0  3  0  0  0  0  0  0  0  0  0
    8.5621   -1.5921    0.0000 C   0  0  0  0  0  0  0  0  0  0  0  0
   12.6691   -4.3581    0.0000 C   0  0  3  0  0  0  0  0  0  0  0  0
    9.4281   -5.0921    0.0000 C   0  0  3  0  0  0  0  0  0  0  0  0
   12.3270   -5.2978    0.0000 C   0  0  3  0  0  0  0  0  0  0  0  0
   12.9698   -6.0638    0.0000 C   0  0  3  0  0  0  0  0  0  0  0  0
    9.4281   -6.0921    0.0000 C   0  0  3  0  0  0  0  0  0  0  0  0
   14.2966   -4.9505    0.0000 C   0  0  3  0  0  0  0  0  0  0  0  0
   13.9546   -5.8901    0.0000 C   0  0  3  0  0  0  0  0  0  0  0  0
    8.5621   -6.5921    0.0000 C   0  0  3  0  0  0  0  0  0  0  0  0
    7.6961   -5.0921    0.0000 C   0  0  3  0  0  0  0  0  0  0  0  0
    7.6961   -6.0921    0.0000 C   0  0  3  0  0  0  0  0  0  0  0  0
   15.2814   -4.7769    0.0000 C   0  0  0  0  0  0  0  0  0  0  0  0
    6.8300   -4.5921    0.0000 C   0  0  0  0  0  0  0  0  0  0  0  0
   15.5822   -6.4826    0.0000 C   0  0  3  0  0  0  0  0  0  0  0  0
   16.2249   -7.2486    0.0000 C   0  0  3  0  0  0  0  0  0  0  0  0
   17.2098   -7.0750    0.0000 C   0  0  3  0  0  0  0  0  0  0  0  0
   16.9090   -5.3693    0.0000 C   0  0  3  0  0  0  0  0  0  0  0  0
   17.5518   -6.1353    0.0000 C   0  0  3  0  0  0  0  0  0  0  0  0
   17.2510   -4.4296    0.0000 C   0  0  0  0  0  0  0  0  0  0  0  0
    8.0380    6.4020    0.0000 H   0  0  0  0  0  0  0  0  0  0  0  0
    8.3991    6.1583    0.0000 H   0  0  0  0  0  0  0  0  0  0  0  0
    5.6829    5.6293    0.0000 H   0  0  0  0  0  0  0  0  0  0  0  0
    8.9482    4.8463    0.0000 H   0  0  0  0  0  0  0  0  0  0  0  0
    6.5855    7.6730    0.0000 H   0  0  0  0  0  0  0  0  0  0  0  0
    7.9415    7.0745    0.0000 H   0  0  0  0  0  0  0  0  0  0  0  0
    7.3220    7.6260    0.0000 H   0  0  0  0  0  0  0  0  0  0  0  0
    6.0670    4.6370    0.0000 H   0  0  0  0  0  0  0  0  0  0  0  0
    6.4682    3.9483    0.0000 H   0  0  0  0  0  0  0  0  0  0  0  0
    7.1493    3.5586    0.0000 H   0  0  0  0  0  0  0  0  0  0  0  0
    7.9463    3.5616    0.0000 H   0  0  0  0  0  0  0  0  0  0  0  0
    5.1744    5.7202    0.0000 H   0  0  0  0  0  0  0  0  0  0  0  0
   10.7447    4.8386    0.0000 H   0  0  0  0  0  0  0  0  0  0  0  0
    9.6899    6.5570    0.0000 H   0  0  0  0  0  0  0  0  0  0  0  0
    8.8917    6.5447    0.0000 H   0  0  0  0  0  0  0  0  0  0  0  0
   10.8174    5.4624    0.0000 H   0  0  0  0  0  0  0  0  0  0  0  0
   10.4129    6.1506    0.0000 H   0  0  0  0  0  0  0  0  0  0  0  0
    5.4980    5.5641    0.0000 H   0  0  0  0  0  0  0  0  0  0  0  0
    5.2744    4.7163    0.0000 H   0  0  0  0  0  0  0  0  0  0  0  0
    6.1222    4.4926    0.0000 H   0  0  0  0  0  0  0  0  0  0  0  0
    8.6765    3.0402    0.0000 H   0  0  0  0  0  0  0  0  0  0  0  0
    9.0649    2.3428    0.0000 H   0  0  0  0  0  0  0  0  0  0  0  0
   11.7673    3.8892    0.0000 H   0  0  0  0  0  0  0  0  0  0  0  0
   11.3628    4.5774    0.0000 H   0  0  0  0  0  0  0  0  0  0  0  0
    8.1302    4.0486    0.0000 H   0  0  0  0  0  0  0  0  0  0  0  0
    7.9000    3.2026    0.0000 H   0  0  0  0  0  0  0  0  0  0  0  0
    8.7460    2.9724    0.0000 H   0  0  0  0  0  0  0  0  0  0  0  0
    9.8157    1.8977    0.0000 H   0  0  0  0  0  0  0  0  0  0  0  0
   10.6139    1.8916    0.0000 H   0  0  0  0  0  0  0  0  0  0  0  0
    3.8223    5.9692    0.0000 H   0  0  0  0  0  0  0  0  0  0  0  0
    3.8693    5.0936    0.0000 H   0  0  0  0  0  0  0  0  0  0  0  0
    4.7449    5.1406    0.0000 H   0  0  0  0  0  0  0  0  0  0  0  0
   11.1590    2.2879    0.0000 H   0  0  0  0  0  0  0  0  0  0  0  0
    5.2554    8.2178    0.0000 H   0  0  0  0  0  0  0  0  0  0  0  0
    4.7850    8.8612    0.0000 H   0  0  0  0  0  0  0  0  0  0  0  0
    4.0672    9.1783    0.0000 H   0  0  0  0  0  0  0  0  0  0  0  0
    3.2747    9.0926    0.0000 H   0  0  0  0  0  0  0  0  0  0  0  0
    2.4036    7.1202    0.0000 H   0  0  0  0  0  0  0  0  0  0  0  0
    2.8741    6.4768    0.0000 H   0  0  0  0  0  0  0  0  0  0  0  0
    2.8481    8.6894    0.0000 H   0  0  0  0  0  0  0  0  0  0  0  0
    2.2505    9.0442    0.0000 H   0  0  0  0  0  0  0  0  0  0  0  0
    1.4328    8.7275    0.0000 H   0  0  0  0  0  0  0  0  0  0  0  0
    1.7495    7.9099    0.0000 H   0  0  0  0  0  0  0  0  0  0  0  0
   12.5631    1.7179    0.0000 H   0  0  0  0  0  0  0  0  0  0  0  0
   13.4292    0.5979    0.0000 H   0  0  0  0  0  0  0  0  0  0  0  0
   13.4292    0.2179    0.0000 H   0  0  0  0  0  0  0  0  0  0  0  0
   10.6232    0.2179    0.0000 H   0  0  0  0  0  0  0  0  0  0  0  0
   12.5631   -0.9021    0.0000 H   0  0  0  0  0  0  0  0  0  0  0  0
   13.7583    2.0279    0.0000 H   0  0  0  0  0  0  0  0  0  0  0  0
    9.8956   -1.0670    0.0000 H   0  0  0  0  0  0  0  0  0  0  0  0
   10.6927   -1.0670    0.0000 H   0  0  0  0  0  0  0  0  0  0  0  0
   14.2952   -0.2821    0.0000 H   0  0  0  0  0  0  0  0  0  0  0  0
   11.1602   -1.4721    0.0000 H   0  0  0  0  0  0  0  0  0  0  0  0
    9.4281    0.5279    0.0000 H   0  0  0  0  0  0  0  0  0  0  0  0
   11.1602   -3.7121    0.0000 H   0  0  0  0  0  0  0  0  0  0  0  0
    9.7572   -3.9021    0.0000 H   0  0  0  0  0  0  0  0  0  0  0  0
    9.4281   -1.4721    0.0000 H   0  0  0  0  0  0  0  0  0  0  0  0
    8.8912   -2.7821    0.0000 H   0  0  0  0  0  0  0  0  0  0  0  0
    7.9515   -1.4844    0.0000 H   0  0  0  0  0  0  0  0  0  0  0  0
    8.3500   -2.1747    0.0000 H   0  0  0  0  0  0  0  0  0  0  0  0
   12.8811   -3.7754    0.0000 H   0  0  0  0  0  0  0  0  0  0  0  0
    8.0252   -3.2821    0.0000 H   0  0  0  0  0  0  0  0  0  0  0  0
    9.4281   -4.4721    0.0000 H   0  0  0  0  0  0  0  0  0  0  0  0
   12.1150   -5.8804    0.0000 H   0  0  0  0  0  0  0  0  0  0  0  0
   13.3683   -6.5388    0.0000 H   0  0  0  0  0  0  0  0  0  0  0  0
    8.0252   -0.2821    0.0000 H   0  0  0  0  0  0  0  0  0  0  0  0
    9.4281   -6.7121    0.0000 H   0  0  0  0  0  0  0  0  0  0  0  0
   14.5086   -4.3679    0.0000 H   0  0  0  0  0  0  0  0  0  0  0  0
   14.5652   -5.7825    0.0000 H   0  0  0  0  0  0  0  0  0  0  0  0
    8.0252   -6.9021    0.0000 H   0  0  0  0  0  0  0  0  0  0  0  0
    7.6961   -4.4721    0.0000 H   0  0  0  0  0  0  0  0  0  0  0  0
   10.9436   -4.9965    0.0000 H   0  0  0  0  0  0  0  0  0  0  0  0
    7.6961   -6.7121    0.0000 H   0  0  0  0  0  0  0  0  0  0  0  0
   15.2814   -5.3969    0.0000 H   0  0  0  0  0  0  0  0  0  0  0  0
   15.8920   -4.8845    0.0000 H   0  0  0  0  0  0  0  0  0  0  0  0
   13.0263   -7.4785    0.0000 H   0  0  0  0  0  0  0  0  0  0  0  0
   10.2942   -7.2121    0.0000 H   0  0  0  0  0  0  0  0  0  0  0  0
    6.2195   -4.4844    0.0000 H   0  0  0  0  0  0  0  0  0  0  0  0
    6.6180   -5.1747    0.0000 H   0  0  0  0  0  0  0  0  0  0  0  0
   15.3701   -7.0652    0.0000 H   0  0  0  0  0  0  0  0  0  0  0  0
    8.0252   -7.9021    0.0000 H   0  0  0  0  0  0  0  0  0  0  0  0
    6.2931   -6.2821    0.0000 H   0  0  0  0  0  0  0  0  0  0  0  0
   15.2249   -3.3622    0.0000 H   0  0  0  0  0  0  0  0  0  0  0  0
   16.6235   -7.7236    0.0000 H   0  0  0  0  0  0  0  0  0  0  0  0
   17.8203   -6.9673    0.0000 H   0  0  0  0  0  0  0  0  0  0  0  0
    6.2931   -3.2821    0.0000 H   0  0  0  0  0  0  0  0  0  0  0  0
   16.5105   -4.8943    0.0000 H   0  0  0  0  0  0  0  0  0  0  0  0
   17.7638   -5.5527    0.0000 H   0  0  0  0  0  0  0  0  0  0  0  0
   16.2815   -8.6632    0.0000 H   0  0  0  0  0  0  0  0  0  0  0  0
   17.8336   -4.6416    0.0000 H   0  0  0  0  0  0  0  0  0  0  0  0
   17.4631   -3.8470    0.0000 H   0  0  0  0  0  0  0  0  0  0  0  0
   16.6684   -4.2175    0.0000 H   0  0  0  0  0  0  0  0  0  0  0  0
   18.4631   -7.7334    0.0000 H   0  0  0  0  0  0  0  0  0  0  0  0
   18.7486   -5.3790    0.0000 H   0  0  0  0  0  0  0  0  0  0  0  0
  1 33  1  0  0  0  0
  1 41  1  0  0  0  0
  2 41  1  0  0  0  0
  2 52  1  0  0  0  0
  3 49  1  0  0  0  0
  3 55  1  0  0  0  0
  4 55  1  0  0  0  0
  4 58  1  0  0  0  0
  5 56  1  0  0  0  0
  5133  1  0  0  0  0
  6 57  1  0  0  0  0
  6136  1  0  0  0  0
  7 59  1  0  0  0  0
  7 61  1  0  0  0  0
  8 60  1  0  0  0  0
  8138  1  0  0  0  0
  9 61  1  0  0  0  0
  9 64  1  0  0  0  0
 10 62  1  0  0  0  0
 10 67  1  0  0  0  0
 11 63  1  0  0  0  0
 11 68  1  0  0  0  0
 12 65  1  0  0  0  0
 12146  1  0  0  0  0
 13 67  1  0  0  0  0
 13 72  1  0  0  0  0
 14 66  1  0  0  0  0
 14150  1  0  0  0  0
 15 68  1  0  0  0  0
 15 75  1  0  0  0  0
 16 69  1  0  0  0  0
 16156  1  0  0  0  0
 17 70  1  0  0  0  0
 17160  1  0  0  0  0
 18 71  1  0  0  0  0
 18161  1  0  0  0  0
 19 73  1  0  0  0  0
 19 79  1  0  0  0  0
 20 74  1  0  0  0  0
 20165  1  0  0  0  0
 21 76  1  0  0  0  0
 21166  1  0  0  0  0
 22 77  1  0  0  0  0
 22167  1  0  0  0  0
 23 79  1  0  0  0  0
 23 82  1  0  0  0  0
 24 78  1  0  0  0  0
 24170  1  0  0  0  0
 25 80  1  0  0  0  0
 25173  1  0  0  0  0
 26 81  1  0  0  0  0
 26177  1  0  0  0  0
 27 83  1  0  0  0  0
 27178  1  0  0  0  0
 28 29  1  0  0  0  0
 28 31  1  0  0  0  0
 28 36  1  0  0  0  0
 28 43  1  0  0  0  0
 29 30  1  0  0  0  0
 29 35  1  0  0  0  0
 29 85  1  0  0  0  0
 30 32  1  0  0  0  0
 30 40  1  0  0  0  0
 30 86  1  0  0  0  0
 31 33  1  0  0  0  0
 31 38  1  0  0  0  0
 31 87  1  0  0  0  0
 32 34  1  0  0  0  0
 32 37  1  0  0  0  0
 32 88  1  0  0  0  0
 33 35  1  0  0  0  0
 33 89  1  0  0  0  0
 34 39  1  0  0  0  0
 34 44  1  0  0  0  0
 34 46  1  0  0  0  0
 35 90  1  0  0  0  0
 35 91  1  0  0  0  0
 36 37  1  0  0  0  0
 36 92  1  0  0  0  0
 36 93  1  0  0  0  0
 37 94  1  0  0  0  0
 37 95  1  0  0  0  0
 38 41  1  0  0  0  0
 38 48  1  0  0  0  0
 38 96  1  0  0  0  0
 39 42  1  0  0  0  0
 39 45  1  0  0  0  0
 39 97  1  0  0  0  0
 40 42  1  0  0  0  0
 40 98  1  0  0  0  0
 40 99  1  0  0  0  0
 41 50  1  0  0  0  0
 42100  1  0  0  0  0
 42101  1  0  0  0  0
 43102  1  0  0  0  0
 43103  1  0  0  0  0
 43104  1  0  0  0  0
 44 47  1  0  0  0  0
 44105  1  0  0  0  0
 44106  1  0  0  0  0
 45 49  1  0  0  0  0
 45107  1  0  0  0  0
 45108  1  0  0  0  0
 46109  1  0  0  0  0
 46110  1  0  0  0  0
 46111  1  0  0  0  0
 47 49  1  0  0  0  0
 47112  1  0  0  0  0
 47113  1  0  0  0  0
 48114  1  0  0  0  0
 48115  1  0  0  0  0
 48116  1  0  0  0  0
 49117  1  0  0  0  0
 50 51  1  0  0  0  0
 50118  1  0  0  0  0
 50119  1  0  0  0  0
 51 53  1  0  0  0  0
 51120  1  0  0  0  0
 51121  1  0  0  0  0
 52 53  1  0  0  0  0
 52122  1  0  0  0  0
 52123  1  0  0  0  0
 53 54  1  0  0  0  0
 53124  1  0  0  0  0
 54125  1  0  0  0  0
 54126  1  0  0  0  0
 54127  1  0  0  0  0
 55 56  1  0  0  0  0
 55128  1  0  0  0  0
 56 57  1  0  0  0  0
 56129  1  0  0  0  0
 57 59  1  0  0  0  0
 57130  1  0  0  0  0
 58 59  1  0  0  0  0
 58 60  1  0  0  0  0
 58131  1  0  0  0  0
 59132  1  0  0  0  0
 60134  1  0  0  0  0
 60135  1  0  0  0  0
 61 62  1  0  0  0  0
 61137  1  0  0  0  0
 62 63  1  0  0  0  0
 62139  1  0  0  0  0
 63 65  1  0  0  0  0
 63140  1  0  0  0  0
 64 65  1  0  0  0  0
 64 66  1  0  0  0  0
 64141  1  0  0  0  0
 65142  1  0  0  0  0
 66143  1  0  0  0  0
 66144  1  0  0  0  0
 67 69  1  0  0  0  0
 67145  1  0  0  0  0
 68 71  1  0  0  0  0
 68147  1  0  0  0  0
 69 70  1  0  0  0  0
 69148  1  0  0  0  0
 70 73  1  0  0  0  0
 70149  1  0  0  0  0
 71 74  1  0  0  0  0
 71151  1  0  0  0  0
 72 73  1  0  0  0  0
 72 77  1  0  0  0  0
 72152  1  0  0  0  0
 73153  1  0  0  0  0
 74 76  1  0  0  0  0
 74154  1  0  0  0  0
 75 76  1  0  0  0  0
 75 78  1  0  0  0  0
 75155  1  0  0  0  0
 76157  1  0  0  0  0
 77158  1  0  0  0  0
 77159  1  0  0  0  0
 78162  1  0  0  0  0
 78163  1  0  0  0  0
 79 80  1  0  0  0  0
 79164  1  0  0  0  0
 80 81  1  0  0  0  0
 80168  1  0  0  0  0
 81 83  1  0  0  0  0
 81169  1  0  0  0  0
 82 83  1  0  0  0  0
 82 84  1  0  0  0  0
 82171  1  0  0  0  0
 83172  1  0  0  0  0
 84174  1  0  0  0  0
 84175  1  0  0  0  0
 84176  1  0  0  0  0
M  END
> <PUBCHEM_COMPOUND_CID>
192451

> <PUBCHEM_COMPOUND_CANONICALIZED>
1

> <PUBCHEM_CACTVS_COMPLEXITY>
2190

> <PUBCHEM_CACTVS_HBOND_ACCEPTOR>
27

> <PUBCHEM_CACTVS_HBOND_DONOR>
15

> <PUBCHEM_CACTVS_ROTATABLE_BOND>
14

> <PUBCHEM_CACTVS_SUBSKEYS>
AAADcfB8PgAAAAAAAAAAAAAAAAAAAaIAAAA0aNEiQAASAGDAAAAAGgAACAAADxSwgAMCCAAABgAAAAAAAAAAAAAAAAAAAAAAAAAREAIAAAAiQAAFAAAHAAHA4PwPgAAAAAAAAADAAAYAACAAAYAADAAAAA==

> <PUBCHEM_IUPAC_OPENEYE_NAME>
2-[6-[2-[4,5-dihydroxy-2-(hydroxymethyl)-6-(5',7,9,13-tetramethylspiro[5-oxapentacyclo[10.8.0.02,9.04,8.013,18]icosane-6,2'-tetrahydropyran]-16-yl)oxy-tetrahydropyran-3-yl]oxy-5-hydroxy-6-(hydroxymethyl)-4-[3,4,5-trihydroxy-6-(hydroxymethyl)tetrahydropyran-2-yl]oxy-tetrahydropyran-3-yl]oxy-4,5-dihydroxy-2-(hydroxymethyl)tetrahydropyran-3-yl]oxy-6-methyl-tetrahydropyran-3,4,5-triol

> <PUBCHEM_IUPAC_CAS_NAME>
2-[[6-[[2-[[4,5-dihydroxy-2-(hydroxymethyl)-6-[(5',7,9,13-tetramethyl-16-spiro[5-oxapentacyclo[10.8.0.02,9.04,8.013,18]eicosane-6,2'-oxane]yl)oxy]-3-oxanyl]oxy]-5-hydroxy-6-(hydroxymethyl)-4-[[3,4,5-trihydroxy-6-(hydroxymethyl)-2-oxanyl]oxy]-3-oxanyl]oxy]-4,5-dihydroxy-2-(hydroxymethyl)-3-oxanyl]oxy]-6-methyloxane-3,4,5-triol

> <PUBCHEM_IUPAC_NAME_MARKUP>
2-[6-[2-[4,5-dihydroxy-2-(hydroxymethyl)-6-(5&apos;,7,9,13-tetramethylspiro[5-oxapentacyclo[10.8.0.0<SUP>2,9</SUP>.0<SUP>4,8</SUP>.0<SUP>13,18</SUP>]icosane-6,2&apos;-oxane]-16-yl)oxyoxan-3-yl]oxy-5-hydroxy-6-(hydroxymethyl)-4-[3,4,5-trihydroxy-6-(hydroxymethyl)oxan-2-yl]oxyoxan-3-yl]oxy-4,5-dihydroxy-2-(hydroxymethyl)oxan-3-yl]oxy-6-methyloxane-3,4,5-triol

> <PUBCHEM_IUPAC_NAME>
2-[6-[2-[4,5-dihydroxy-2-(hydroxymethyl)-6-(5',7,9,13-tetramethylspiro[5-oxapentacyclo[10.8.0.02,9.04,8.013,18]icosane-6,2'-oxane]-16-yl)oxyoxan-3-yl]oxy-5-hydroxy-6-(hydroxymethyl)-4-[3,4,5-trihydroxy-6-(hydroxymethyl)oxan-2-yl]oxyoxan-3-yl]oxy-4,5-dihydroxy-2-(hydroxymethyl)oxan-3-yl]oxy-6-methyloxane-3,4,5-triol

> <PUBCHEM_IUPAC_SYSTEMATIC_NAME>
2-[2-(hydroxymethyl)-6-[6-(hydroxymethyl)-2-[2-(hydroxymethyl)-4,5-bis(oxidanyl)-6-(5',7,9,13-tetramethylspiro[5-oxapentacyclo[10.8.0.02,9.04,8.013,18]icosane-6,2'-oxane]-16-yl)oxy-oxan-3-yl]oxy-4-[6-(hydroxymethyl)-3,4,5-tris(oxidanyl)oxan-2-yl]oxy-5-oxidanyl-oxan-3-yl]oxy-4,5-bis(oxidanyl)oxan-3-yl]oxy-6-methyl-oxane-3,4,5-triol

> <PUBCHEM_IUPAC_TRADITIONAL_NAME>
2-[6-[2-[4,5-dihydroxy-2-methylol-6-(5',7,9,13-tetramethylspiro[5-oxapentacyclo[10.8.0.02,9.04,8.013,18]eicosane-6,2'-tetrahydropyran]-16-yl)oxy-tetrahydropyran-3-yl]oxy-5-hydroxy-6-methylol-4-(3,4,5-trihydroxy-6-methylol-tetrahydropyran-2-yl)oxy-tetrahydropyran-3-yl]oxy-4,5-dihydroxy-2-methylol-tetrahydropyran-3-yl]oxy-6-methyl-tetrahydropyran-3,4,5-triol

> <PUBCHEM_IUPAC_INCHI>
InChI=1S/C57H94O27/c1-21-8-13-57(73-20-21)22(2)34-29(84-57)15-28-26-7-6-24-14-25(9-11-55(24,4)27(26)10-12-56(28,34)5)75-51-44(71)40(67)47(33(19-61)78-51)81-54-49(48(37(64)31(17-59)77-54)82-52-43(70)39(66)36(63)30(16-58)76-52)83-53-45(72)41(68)46(32(18-60)79-53)80-50-42(69)38(65)35(62)23(3)74-50/h21-54,58-72H,6-20H2,1-5H3

> <PUBCHEM_IUPAC_INCHIKEY>
OFWRPYLODPDMMJ-UHFFFAOYSA-N

> <PUBCHEM_XLOGP3_AA>
-2.1

> <PUBCHEM_EXACT_MASS>
1210.598248

> <PUBCHEM_MOLECULAR_FORMULA>
C57H94O27

> <PUBCHEM_MOLECULAR_WEIGHT>
1211.3

> <PUBCHEM_OPENEYE_CAN_SMILES>
CC1CCC2(C(C3C(O2)CC4C3(CCC5C4CCC6C5(CCC(C6)OC7C(C(C(C(O7)CO)OC8C(C(C(C(O8)CO)O)OC9C(C(C(C(O9)CO)O)O)O)OC2C(C(C(C(O2)CO)OC2C(C(C(C(O2)C)O)O)O)O)O)O)O)C)C)C)OC1

> <PUBCHEM_OPENEYE_ISO_SMILES>
CC1CCC2(C(C3C(O2)CC4C3(CCC5C4CCC6C5(CCC(C6)OC7C(C(C(C(O7)CO)OC8C(C(C(C(O8)CO)O)OC9C(C(C(C(O9)CO)O)O)O)OC2C(C(C(C(O2)CO)OC2C(C(C(C(O2)C)O)O)O)O)O)O)O)C)C)C)OC1

> <PUBCHEM_CACTVS_TPSA>
414

> <PUBCHEM_MONOISOTOPIC_WEIGHT>
1210.598248

> <PUBCHEM_TOTAL_CHARGE>
0

> <PUBCHEM_HEAVY_ATOM_COUNT>
84

> <PUBCHEM_ATOM_DEF_STEREO_COUNT>
0

> <PUBCHEM_ATOM_UDEF_STEREO_COUNT>
37

> <PUBCHEM_BOND_DEF_STEREO_COUNT>
0

> <PUBCHEM_BOND_UDEF_STEREO_COUNT>
0

> <PUBCHEM_ISOTOPIC_ATOM_COUNT>
0

> <PUBCHEM_COMPONENT_COUNT>
1

> <PUBCHEM_CACTVS_TAUTO_COUNT>
-1

> <PUBCHEM_COORDINATE_TYPE>
1
5
255

> <PUBCHEM_BONDANNOTATIONS>
62  10  3
67  10  3
63  11  3
68  11  3
65  12  3
69  16  3
70  17  3
71  18  3
73  19  3
79  19  3
74  20  3
76  21  3
80  25  3
81  26  3
83  27  3
28  43  3
29  35  3
49  3  3
55  3  3
30  40  3
31  38  3
32  37  3
33  35  3
34  46  3
38  48  3
39  42  3
41  50  3
56  5  3
53  54  3
58  60  3
57  6  3
64  66  3
59  7  3
61  7  3
72  77  3
75  78  3
82  84  3

$$$$
