10798255
  -OEChem-10022017413D

 39 40  0     1  0  0  0  0  0999 V2000
    1.3506   -0.4731    0.5739 C   0  0  1  0  0  0  0  0  0  0  0  0
    0.4171    2.2469   -0.3110 C   0  0  2  0  0  0  0  0  0  0  0  0
    2.2988    0.6060    0.0197 C   0  0  0  0  0  0  0  0  0  0  0  0
   -0.1140   -0.1379    0.3240 C   0  0  0  0  0  0  0  0  0  0  0  0
   -0.5318    1.0723   -0.1132 C   0  0  0  0  0  0  0  0  0  0  0  0
    1.7900    2.0019    0.3368 C   0  0  0  0  0  0  0  0  0  0  0  0
    1.7802   -1.8239   -0.0208 C   0  0  0  0  0  0  0  0  0  0  0  0
   -1.9933    1.3133   -0.4365 C   0  0  0  0  0  0  0  0  0  0  0  0
   -2.8271    0.0413   -0.6496 C   0  0  0  0  0  0  0  0  0  0  0  0
   -1.0940   -1.1709    0.6300 C   0  0  0  0  0  0  0  0  0  0  0  0
   -0.1391    3.5715    0.2284 C   0  0  0  0  0  0  0  0  0  0  0  0
   -2.3574   -1.1230    0.1771 C   0  0  0  0  0  0  0  0  0  0  0  0
    1.5360   -1.8267   -1.5186 C   0  0  0  0  0  0  0  0  0  0  0  0
    3.2376   -2.0903    0.3083 C   0  0  0  0  0  0  0  0  0  0  0  0
   -3.3536   -2.2076    0.4514 C   0  0  0  0  0  0  0  0  0  0  0  0
    1.4841   -0.5121    1.6651 H   0  0  0  0  0  0  0  0  0  0  0  0
    0.5647    2.3625   -1.3934 H   0  0  0  0  0  0  0  0  0  0  0  0
    2.4357    0.5503   -1.0636 H   0  0  0  0  0  0  0  0  0  0  0  0
    3.2920    0.5109    0.4738 H   0  0  0  0  0  0  0  0  0  0  0  0
    1.7287    2.1271    1.4261 H   0  0  0  0  0  0  0  0  0  0  0  0
    2.5087    2.7471   -0.0260 H   0  0  0  0  0  0  0  0  0  0  0  0
    1.1940   -2.6332    0.4298 H   0  0  0  0  0  0  0  0  0  0  0  0
   -2.4359    1.8924    0.3845 H   0  0  0  0  0  0  0  0  0  0  0  0
   -2.0784    1.9256   -1.3427 H   0  0  0  0  0  0  0  0  0  0  0  0
   -2.7931   -0.2497   -1.7073 H   0  0  0  0  0  0  0  0  0  0  0  0
   -3.8741    0.2740   -0.4199 H   0  0  0  0  0  0  0  0  0  0  0  0
   -0.7748   -2.0038    1.2487 H   0  0  0  0  0  0  0  0  0  0  0  0
   -0.3923    3.4948    1.2917 H   0  0  0  0  0  0  0  0  0  0  0  0
    0.5953    4.3763    0.1130 H   0  0  0  0  0  0  0  0  0  0  0  0
   -1.0395    3.8797   -0.3130 H   0  0  0  0  0  0  0  0  0  0  0  0
    2.2359   -1.2024   -2.0805 H   0  0  0  0  0  0  0  0  0  0  0  0
    1.6819   -2.8451   -1.9005 H   0  0  0  0  0  0  0  0  0  0  0  0
    0.5180   -1.5420   -1.7981 H   0  0  0  0  0  0  0  0  0  0  0  0
    3.9307   -1.4692   -0.2681 H   0  0  0  0  0  0  0  0  0  0  0  0
    3.4864   -3.1306    0.0673 H   0  0  0  0  0  0  0  0  0  0  0  0
    3.4427   -1.9494    1.3749 H   0  0  0  0  0  0  0  0  0  0  0  0
   -3.7229   -2.6292   -0.4891 H   0  0  0  0  0  0  0  0  0  0  0  0
   -4.2050   -1.8089    1.0124 H   0  0  0  0  0  0  0  0  0  0  0  0
   -2.9212   -3.0257    1.0367 H   0  0  0  0  0  0  0  0  0  0  0  0
  1  3  1  0  0  0  0
  1  4  1  0  0  0  0
  1  7  1  0  0  0  0
  1 16  1  0  0  0  0
  2  5  1  0  0  0  0
  2  6  1  0  0  0  0
  2 11  1  0  0  0  0
  2 17  1  0  0  0  0
  3  6  1  0  0  0  0
  3 18  1  0  0  0  0
  3 19  1  0  0  0  0
  4  5  2  0  0  0  0
  4 10  1  0  0  0  0
  5  8  1  0  0  0  0
  6 20  1  0  0  0  0
  6 21  1  0  0  0  0
  7 13  1  0  0  0  0
  7 14  1  0  0  0  0
  7 22  1  0  0  0  0
  8  9  1  0  0  0  0
  8 23  1  0  0  0  0
  8 24  1  0  0  0  0
  9 12  1  0  0  0  0
  9 25  1  0  0  0  0
  9 26  1  0  0  0  0
 10 12  2  0  0  0  0
 10 27  1  0  0  0  0
 11 28  1  0  0  0  0
 11 29  1  0  0  0  0
 11 30  1  0  0  0  0
 12 15  1  0  0  0  0
 13 31  1  0  0  0  0
 13 32  1  0  0  0  0
 13 33  1  0  0  0  0
 14 34  1  0  0  0  0
 14 35  1  0  0  0  0
 14 36  1  0  0  0  0
 15 37  1  0  0  0  0
 15 38  1  0  0  0  0
 15 39  1  0  0  0  0
M  END
> <PUBCHEM_COMPOUND_CID>
10798255

> <PUBCHEM_CONFORMER_RMSD>
0.6

> <PUBCHEM_CONFORMER_DIVERSEORDER>
1

> <PUBCHEM_MMFF94_PARTIAL_CHARGES>
10
1 0.14
10 -0.15
12 -0.28
15 0.14
2 0.14
27 0.15
4 -0.14
5 -0.28
8 0.14
9 0.14

> <PUBCHEM_EFFECTIVE_ROTOR_COUNT>
2.2

> <PUBCHEM_PHARMACOPHORE_FEATURES>
3
3 7 13 14 hydrophobe
6 1 2 3 4 5 6 rings
6 4 5 8 9 10 12 rings

> <PUBCHEM_HEAVY_ATOM_COUNT>
15

> <PUBCHEM_ATOM_DEF_STEREO_COUNT>
2

> <PUBCHEM_ATOM_UDEF_STEREO_COUNT>
0

> <PUBCHEM_BOND_DEF_STEREO_COUNT>
0

> <PUBCHEM_BOND_UDEF_STEREO_COUNT>
0

> <PUBCHEM_ISOTOPIC_ATOM_COUNT>
0

> <PUBCHEM_COMPONENT_COUNT>
1

> <PUBCHEM_CACTVS_TAUTO_COUNT>
1

> <PUBCHEM_CONFORMER_ID>
00A4C4AF00000001

> <PUBCHEM_MMFF94_ENERGY>
26.6954

> <PUBCHEM_FEATURE_SELFOVERLAP>
15.24

> <PUBCHEM_SHAPE_FINGERPRINT>
1 1 17906454677000738453
10967382 1 18121498226297175272
11578080 2 16590241166427789830
11680986 33 18410002252306602617
116883 192 18198340650347757165
12346645 6 18052826028988690851
12524768 44 18412260606087225277
12532896 13 17331681245602079428
13140716 1 18337670819495766931
14115302 16 17897172316360961639
14251717 144 17835237127474992295
14648413 74 18336822108589362209
14790565 3 17690853254698591248
14817 1 11294824614765976016
15001771 113 18337958891479180688
15309172 13 17545330034624146305
15490181 7 17546157970890115488
16945 1 18120647195812843561
17990270 104 18337104669823429707
193761 8 18338234856371780560
19591789 44 17400085660949060236
20510252 161 17622155772357492136
20645476 183 17035885147356952414
20645477 70 18048871090301848615
20905425 154 18410012143705910732
21041028 32 18339653252309928409
21501502 16 18409735044899830929
21524375 3 17548420761530210704
22721475 48 18270118994070177742
22802520 49 18341613655297487339
23184049 29 18263638485521376706
2334 1 18409165532336699147
23402539 116 17907276776754280046
23419403 2 17102787457752621772
23557571 272 17840869573668032966
23559900 14 17190090528494512718
257057 1 18337663131588917098
2748010 2 18410847759262349597
3060560 45 17980485885868023836
54173680 148 18192993712380200154
576247 118 17911556174767711639
7364860 26 18267586994995715129
81228 2 18052543162041500464
8809292 202 18264486174526387706

> <PUBCHEM_SHAPE_MULTIPOLES>
308.69
4.4
3.54
0.91
1.28
2.23
0.22
-3.29
-0.11
-0.6
-0.1
-0.12
-0.31
0.57

> <PUBCHEM_SHAPE_SELFOVERLAP>
632.903

> <PUBCHEM_SHAPE_VOLUME>
174.7

> <PUBCHEM_COORDINATE_TYPE>
2
5
10

$$$$
