100949538
  -OEChem-10022016413D

 44 45  0     1  0  0  0  0  0999 V2000
   -1.9397    1.8541   -1.1940 O   0  0  0  0  0  0  0  0  0  0  0  0
    0.1746   -0.1810   -0.7807 C   0  0  1  0  0  0  0  0  0  0  0  0
   -1.3299   -0.3345   -0.4152 C   0  0  2  0  0  0  0  0  0  0  0  0
    0.9772    0.5475    0.3309 C   0  0  2  0  0  0  0  0  0  0  0  0
   -1.9573    1.0290   -0.0168 C   0  0  1  0  0  0  0  0  0  0  0  0
    0.7553   -1.5408   -1.2237 C   0  0  0  0  0  0  0  0  0  0  0  0
   -1.5284   -1.4502    0.6282 C   0  0  0  0  0  0  0  0  0  0  0  0
    0.3248    1.8946    0.6805 C   0  0  0  0  0  0  0  0  0  0  0  0
   -1.1413    1.7345    1.0749 C   0  0  0  0  0  0  0  0  0  0  0  0
    0.4815   -2.7361   -0.2986 C   0  0  2  0  0  0  0  0  0  0  0  0
   -0.9877   -2.7893    0.1273 C   0  0  0  0  0  0  0  0  0  0  0  0
    2.4400    0.7877   -0.0560 C   0  0  0  0  0  0  0  0  0  0  0  0
   -3.4243    0.9116    0.4107 C   0  0  0  0  0  0  0  0  0  0  0  0
    1.4238   -2.8109    0.9027 C   0  0  0  0  0  0  0  0  0  0  0  0
    2.5246    1.6880   -1.2845 C   0  0  0  0  0  0  0  0  0  0  0  0
    3.2067    1.3958    1.1141 C   0  0  0  0  0  0  0  0  0  0  0  0
    0.1891    0.4549   -1.6744 H   0  0  0  0  0  0  0  0  0  0  0  0
   -1.8388   -0.6671   -1.3333 H   0  0  0  0  0  0  0  0  0  0  0  0
    0.9580   -0.0582    1.2409 H   0  0  0  0  0  0  0  0  0  0  0  0
    0.2811   -1.7794   -2.1877 H   0  0  0  0  0  0  0  0  0  0  0  0
    1.8217   -1.4756   -1.4574 H   0  0  0  0  0  0  0  0  0  0  0  0
   -2.5947   -1.5872    0.8381 H   0  0  0  0  0  0  0  0  0  0  0  0
   -1.0547   -1.1877    1.5799 H   0  0  0  0  0  0  0  0  0  0  0  0
    0.3612    2.5978   -0.1565 H   0  0  0  0  0  0  0  0  0  0  0  0
    0.8301    2.3747    1.5245 H   0  0  0  0  0  0  0  0  0  0  0  0
   -1.2074    1.1821    2.0200 H   0  0  0  0  0  0  0  0  0  0  0  0
   -1.5538    2.7349    1.2584 H   0  0  0  0  0  0  0  0  0  0  0  0
    0.6829   -3.6422   -0.8871 H   0  0  0  0  0  0  0  0  0  0  0  0
   -1.1343   -3.5564    0.8972 H   0  0  0  0  0  0  0  0  0  0  0  0
   -1.5900   -3.1034   -0.7355 H   0  0  0  0  0  0  0  0  0  0  0  0
    2.9283   -0.1652   -0.2818 H   0  0  0  0  0  0  0  0  0  0  0  0
   -4.0082    0.3684   -0.3409 H   0  0  0  0  0  0  0  0  0  0  0  0
   -3.8810    1.9045    0.4974 H   0  0  0  0  0  0  0  0  0  0  0  0
   -3.5363    0.4052    1.3742 H   0  0  0  0  0  0  0  0  0  0  0  0
    1.1865   -2.0790    1.6762 H   0  0  0  0  0  0  0  0  0  0  0  0
    2.4647   -2.6671    0.5958 H   0  0  0  0  0  0  0  0  0  0  0  0
    1.3537   -3.7990    1.3718 H   0  0  0  0  0  0  0  0  0  0  0  0
   -2.4889    1.4244   -1.8717 H   0  0  0  0  0  0  0  0  0  0  0  0
    3.5777    1.7858   -1.5785 H   0  0  0  0  0  0  0  0  0  0  0  0
    2.0130    1.2783   -2.1580 H   0  0  0  0  0  0  0  0  0  0  0  0
    3.0371    0.8354    2.0394 H   0  0  0  0  0  0  0  0  0  0  0  0
    4.2831    1.3639    0.9081 H   0  0  0  0  0  0  0  0  0  0  0  0
    2.9570    2.4468    1.2887 H   0  0  0  0  0  0  0  0  0  0  0  0
    2.1741    2.7083   -1.1094 H   0  0  0  0  0  0  0  0  0  0  0  0
  1  5  1  0  0  0  0
  1 38  1  0  0  0  0
  2  3  1  0  0  0  0
  2  4  1  0  0  0  0
  2  6  1  0  0  0  0
  2 17  1  0  0  0  0
  3  5  1  0  0  0  0
  3  7  1  0  0  0  0
  3 18  1  0  0  0  0
  4  8  1  0  0  0  0
  4 12  1  0  0  0  0
  4 19  1  0  0  0  0
  5  9  1  0  0  0  0
  5 13  1  0  0  0  0
  6 10  1  0  0  0  0
  6 20  1  0  0  0  0
  6 21  1  0  0  0  0
  7 11  1  0  0  0  0
  7 22  1  0  0  0  0
  7 23  1  0  0  0  0
  8  9  1  0  0  0  0
  8 24  1  0  0  0  0
  8 25  1  0  0  0  0
  9 26  1  0  0  0  0
  9 27  1  0  0  0  0
 10 11  1  0  0  0  0
 10 14  1  0  0  0  0
 10 28  1  0  0  0  0
 11 29  1  0  0  0  0
 11 30  1  0  0  0  0
 12 15  1  0  0  0  0
 12 16  1  0  0  0  0
 12 31  1  0  0  0  0
 13 32  1  0  0  0  0
 13 33  1  0  0  0  0
 13 34  1  0  0  0  0
 14 35  1  0  0  0  0
 14 36  1  0  0  0  0
 14 37  1  0  0  0  0
 15 39  1  0  0  0  0
 15 40  1  0  0  0  0
 15 44  1  0  0  0  0
 16 41  1  0  0  0  0
 16 42  1  0  0  0  0
 16 43  1  0  0  0  0
M  END
> <PUBCHEM_COMPOUND_CID>
100949538

> <PUBCHEM_CONFORMER_RMSD>
0.6

> <PUBCHEM_CONFORMER_DIVERSEORDER>
1
3
6
7
4
5
2

> <PUBCHEM_MMFF94_PARTIAL_CHARGES>
3
1 -0.68
38 0.4
5 0.28

> <PUBCHEM_EFFECTIVE_ROTOR_COUNT>
2.6

> <PUBCHEM_PHARMACOPHORE_FEATURES>
5
1 1 acceptor
1 1 donor
3 12 15 16 hydrophobe
6 2 3 4 5 8 9 rings
6 2 3 6 7 10 11 rings

> <PUBCHEM_HEAVY_ATOM_COUNT>
16

> <PUBCHEM_ATOM_DEF_STEREO_COUNT>
5

> <PUBCHEM_ATOM_UDEF_STEREO_COUNT>
0

> <PUBCHEM_BOND_DEF_STEREO_COUNT>
0

> <PUBCHEM_BOND_UDEF_STEREO_COUNT>
0

> <PUBCHEM_ISOTOPIC_ATOM_COUNT>
0

> <PUBCHEM_COMPONENT_COUNT>
1

> <PUBCHEM_CACTVS_TAUTO_COUNT>
1

> <PUBCHEM_CONFORMER_ID>
06045E2200000001

> <PUBCHEM_MMFF94_ENERGY>
46.6971

> <PUBCHEM_FEATURE_SELFOVERLAP>
25.414

> <PUBCHEM_SHAPE_FINGERPRINT>
11680986 33 18337395928646353235
12423570 1 18040158409327462029
12716301 132 18196378236840444408
13027679 85 17328870898176425452
13132413 78 17260193194477086028
13140716 1 18412546483358312202
13380535 76 18412543227920502247
14181834 199 18051671270795491308
14817 1 17980771754749298326
15076042 46 18120090847498651134
15852999 172 18266437876300777381
16752209 62 18193554699559810934
16945 1 18262513818138077733
19868273 325 17545326740273246070
20510252 161 18053671544618833736
20645476 183 18190190159777535212
21061003 4 17617379476603130163
21501502 16 18412260606430402511
21524375 3 18342172288766578348
22112679 90 17129271222875354357
22344851 341 18411146822146351475
22802520 49 17701566045764102892
2334 1 18340774835331539574
23388829 49 17695327197333072407
23419403 2 15221977929455334486
23552423 10 18052549767965257357
23557571 272 17694803096034934460
241688 4 16971396535234595451
2748010 2 18341066180063994766
528862 383 18264768761857183291
576247 118 17042071506749642550
5845 1 16408177742888651452
598444 67 18125736818005578150
7364860 26 18127412237402874182
81228 2 17907576183240420338

> <PUBCHEM_SHAPE_MULTIPOLES>
323.4
3.88
3.43
1.21
1.23
2.52
0.12
-2.42
-0.4
-0.67
-0.39
0.43
-0.18
0

> <PUBCHEM_SHAPE_SELFOVERLAP>
651.979

> <PUBCHEM_SHAPE_VOLUME>
188.5

> <PUBCHEM_COORDINATE_TYPE>
2
5
10

$$$$
