12094983
  -OEChem-10022017003D

 50 50  0     1  0  0  0  0  0999 V2000
    3.5314   -0.1026   -1.7732 O   0  0  0  0  0  0  0  0  0  0  0  0
    5.4908    0.4791    0.2882 O   0  0  0  0  0  0  0  0  0  0  0  0
   -6.7227   -0.4918   -0.6545 O   0  0  0  0  0  0  0  0  0  0  0  0
   -5.7386   -0.5592    1.3929 O   0  0  0  0  0  0  0  0  0  0  0  0
    2.1368   -0.7737    0.1453 C   0  0  1  0  0  0  0  0  0  0  0  0
    3.1821    0.2028   -0.4344 C   0  0  2  0  0  0  0  0  0  0  0  0
    1.5473   -1.7505   -0.8605 C   0  0  0  0  0  0  0  0  0  0  0  0
    0.5753   -2.7582   -0.2405 C   0  0  0  0  0  0  0  0  0  0  0  0
    2.7516    1.6596   -0.3254 C   0  0  0  0  0  0  0  0  0  0  0  0
    2.8909   -1.5004    1.2257 C   0  0  0  0  0  0  0  0  0  0  0  0
    4.4063   -0.0720    0.4094 C   0  0  0  0  0  0  0  0  0  0  0  0
   -0.6467   -2.1002    0.4061 C   0  0  0  0  0  0  0  0  0  0  0  0
    4.1580   -1.1249    1.4014 C   0  0  0  0  0  0  0  0  0  0  0  0
   -1.4877   -1.2771   -0.5769 C   0  0  0  0  0  0  0  0  0  0  0  0
   -2.7231   -0.6396    0.0646 C   0  0  0  0  0  0  0  0  0  0  0  0
    1.4954    1.9160   -1.1025 C   0  0  0  0  0  0  0  0  0  0  0  0
   -3.5634    0.1866   -0.9177 C   0  0  0  0  0  0  0  0  0  0  0  0
    0.3471    2.3306   -0.5471 C   0  0  0  0  0  0  0  0  0  0  0  0
   -4.7901    0.8633   -0.3127 C   0  0  0  0  0  0  0  0  0  0  0  0
    0.1765    2.5894    0.9206 C   0  0  0  0  0  0  0  0  0  0  0  0
   -5.7800   -0.1257    0.2490 C   0  0  0  0  0  0  0  0  0  0  0  0
   -1.2373    3.0483    1.2422 C   0  0  0  0  0  0  0  0  0  0  0  0
    1.3369   -0.2223    0.6461 H   0  0  0  0  0  0  0  0  0  0  0  0
    1.0604   -1.2059   -1.6769 H   0  0  0  0  0  0  0  0  0  0  0  0
    2.3524   -2.3314   -1.3314 H   0  0  0  0  0  0  0  0  0  0  0  0
    1.0783   -3.3981    0.4919 H   0  0  0  0  0  0  0  0  0  0  0  0
    0.2306   -3.4330   -1.0347 H   0  0  0  0  0  0  0  0  0  0  0  0
    2.6662    1.9478    0.7279 H   0  0  0  0  0  0  0  0  0  0  0  0
    3.5297    2.3098   -0.7475 H   0  0  0  0  0  0  0  0  0  0  0  0
    2.4326   -2.2477    1.8603 H   0  0  0  0  0  0  0  0  0  0  0  0
   -0.3497   -1.4792    1.2579 H   0  0  0  0  0  0  0  0  0  0  0  0
   -1.2781   -2.8960    0.8219 H   0  0  0  0  0  0  0  0  0  0  0  0
    4.8684   -1.4909    2.1212 H   0  0  0  0  0  0  0  0  0  0  0  0
   -1.8032   -1.9194   -1.4081 H   0  0  0  0  0  0  0  0  0  0  0  0
   -0.8825   -0.4734   -1.0074 H   0  0  0  0  0  0  0  0  0  0  0  0
    4.1886    0.5482   -2.0735 H   0  0  0  0  0  0  0  0  0  0  0  0
   -2.4102   -0.0043    0.9009 H   0  0  0  0  0  0  0  0  0  0  0  0
   -3.3404   -1.4388    0.4908 H   0  0  0  0  0  0  0  0  0  0  0  0
    1.5259    1.7636   -2.1783 H   0  0  0  0  0  0  0  0  0  0  0  0
   -2.9273    0.9613   -1.3634 H   0  0  0  0  0  0  0  0  0  0  0  0
   -3.8849   -0.4665   -1.7388 H   0  0  0  0  0  0  0  0  0  0  0  0
   -0.5063    2.4890   -1.2019 H   0  0  0  0  0  0  0  0  0  0  0  0
   -4.4997    1.5463    0.4938 H   0  0  0  0  0  0  0  0  0  0  0  0
   -5.2952    1.4783   -1.0666 H   0  0  0  0  0  0  0  0  0  0  0  0
    0.3789    1.6795    1.4947 H   0  0  0  0  0  0  0  0  0  0  0  0
    0.8740    3.3690    1.2475 H   0  0  0  0  0  0  0  0  0  0  0  0
   -1.4716    3.9903    0.7343 H   0  0  0  0  0  0  0  0  0  0  0  0
   -1.9800    2.3063    0.9367 H   0  0  0  0  0  0  0  0  0  0  0  0
   -1.3459    3.2114    2.3193 H   0  0  0  0  0  0  0  0  0  0  0  0
   -7.3583   -1.1379   -0.2792 H   0  0  0  0  0  0  0  0  0  0  0  0
  1  6  1  0  0  0  0
  1 36  1  0  0  0  0
  2 11  2  0  0  0  0
  3 21  1  0  0  0  0
  3 50  1  0  0  0  0
  4 21  2  0  0  0  0
  5  6  1  0  0  0  0
  5  7  1  0  0  0  0
  5 10  1  0  0  0  0
  5 23  1  0  0  0  0
  6  9  1  0  0  0  0
  6 11  1  0  0  0  0
  7  8  1  0  0  0  0
  7 24  1  0  0  0  0
  7 25  1  0  0  0  0
  8 12  1  0  0  0  0
  8 26  1  0  0  0  0
  8 27  1  0  0  0  0
  9 16  1  0  0  0  0
  9 28  1  0  0  0  0
  9 29  1  0  0  0  0
 10 13  2  0  0  0  0
 10 30  1  0  0  0  0
 11 13  1  0  0  0  0
 12 14  1  0  0  0  0
 12 31  1  0  0  0  0
 12 32  1  0  0  0  0
 13 33  1  0  0  0  0
 14 15  1  0  0  0  0
 14 34  1  0  0  0  0
 14 35  1  0  0  0  0
 15 17  1  0  0  0  0
 15 37  1  0  0  0  0
 15 38  1  0  0  0  0
 16 18  2  0  0  0  0
 16 39  1  0  0  0  0
 17 19  1  0  0  0  0
 17 40  1  0  0  0  0
 17 41  1  0  0  0  0
 18 20  1  0  0  0  0
 18 42  1  0  0  0  0
 19 21  1  0  0  0  0
 19 43  1  0  0  0  0
 19 44  1  0  0  0  0
 20 22  1  0  0  0  0
 20 45  1  0  0  0  0
 20 46  1  0  0  0  0
 22 47  1  0  0  0  0
 22 48  1  0  0  0  0
 22 49  1  0  0  0  0
M  END
> <PUBCHEM_COMPOUND_CID>
12094983

> <PUBCHEM_CONFORMER_RMSD>
1.2

> <PUBCHEM_CONFORMER_DIVERSEORDER>
10
221
36
123
156
201
23
32
179
4
131
133
18
124
216
197
195
22
210
72
17
162
116
239
194
71
151
82
139
86
3
150
138
136
11
228
31
95
61
119
92
126
50
35
148
100
130
172
57
13
45
30
230
24
180
73
134
49
88
66
198
2
37
214
170
14
224
212
20
59
200
109
192
75
202
196
81
103
58
53
158
29
108
182
51
77
68
87
79
225
229
106
64
129
74
238
147
60
189
25
152
206
220
41
26
85
178
12
227
205
46
65
188
52
16
7
211
217
144
181
94
143
128
76
117
159
48
70
105
157
174
223
96
39
204
137
110
44
40
231
187
240
99
78
89
80
208
161
107
113
236
38
167
186
169
135
6
175
34
67
165
218
149
27
146
145
93
226
232
1
102
5
97
141
9
84
121
166
190
69
114
237
56
54
209
90
132
215
83
28
47
127
184
177
154
183
160
173
42
125
111
219
118
207
140
164
98
193
153
101
55
176
122
235
43
112
19
63
8
142
155
185
115
222
104
171
21
191
199
62
15
33
91
213
233
234
163
168
203
120

> <PUBCHEM_MMFF94_PARTIAL_CHARGES>
21
1 -0.68
10 -0.29
11 0.49
13 -0.14
16 -0.29
18 -0.29
19 0.06
2 -0.57
20 0.14
21 0.66
3 -0.65
30 0.15
33 0.15
36 0.4
39 0.15
4 -0.57
42 0.15
5 0.14
50 0.5
6 0.34
9 0.14

> <PUBCHEM_EFFECTIVE_ROTOR_COUNT>
11.4

> <PUBCHEM_PHARMACOPHORE_FEATURES>
8
1 1 acceptor
1 1 donor
1 2 acceptor
1 22 hydrophobe
1 3 acceptor
1 4 acceptor
3 3 4 21 anion
5 5 6 10 11 13 rings

> <PUBCHEM_HEAVY_ATOM_COUNT>
22

> <PUBCHEM_ATOM_DEF_STEREO_COUNT>
0

> <PUBCHEM_ATOM_UDEF_STEREO_COUNT>
2

> <PUBCHEM_BOND_DEF_STEREO_COUNT>
1

> <PUBCHEM_BOND_UDEF_STEREO_COUNT>
0

> <PUBCHEM_ISOTOPIC_ATOM_COUNT>
0

> <PUBCHEM_COMPONENT_COUNT>
1

> <PUBCHEM_CACTVS_TAUTO_COUNT>
3

> <PUBCHEM_CONFORMER_ID>
00B88E070000000A

> <PUBCHEM_MMFF94_ENERGY>
23.4573

> <PUBCHEM_FEATURE_SELFOVERLAP>
40.656

> <PUBCHEM_SHAPE_FINGERPRINT>
10670039 82 18269569251510353188
10688039 33 17676764284403328037
11045977 3 17603308163578777843
11646440 116 18272939340438036809
11724838 91 18410852209487376015
12166972 35 18040719125707901062
12633257 1 18409163346478213007
12778500 126 15864619554267074397
12788726 201 18272099283311030648
12838862 33 18338215151003752236
13140716 1 18267301113271912418
13402501 40 18260827103367111981
14178342 30 18053941745670830920
14464042 87 18343021069041708817
15081414 286 18271812284879081676
15238133 3 18113903797064586878
1601671 61 18342455941334152735
18785283 64 18190189056250501781
22113638 7 18341045315308023749
3680242 22 18335424513246043971
484985 159 14572614024597712514
5939293 188 18340767151888215812
7495541 125 17749111118955876131
8509985 295 18186514410442694475

> <PUBCHEM_SHAPE_MULTIPOLES>
429.27
12.08
3.02
1.28
17.04
1.28
-0.07
-1.7
-1.25
-0.58
-0.47
-0.41
0.14
-0.69

> <PUBCHEM_SHAPE_SELFOVERLAP>
851.05

> <PUBCHEM_SHAPE_VOLUME>
253.3

> <PUBCHEM_COORDINATE_TYPE>
2
5
10

$$$$
