53786864
  -OEChem-10022016463D

 42 43  0     0  0  0  0  0  0999 V2000
   -8.8213    1.6788   -0.6682 Cl  0  0  0  0  0  0  0  0  0  0  0  0
   -3.7784   -1.2320    0.1594 O   0  0  0  0  0  0  0  0  0  0  0  0
    4.6994    0.0533    1.0255 O   0  0  0  0  0  0  0  0  0  0  0  0
   -0.2016   -0.3334    0.8774 C   0  0  0  0  0  0  0  0  0  0  0  0
    1.1239   -0.8763    0.3410 C   0  0  0  0  0  0  0  0  0  0  0  0
   -1.3916   -1.0745    0.2719 C   0  0  0  0  0  0  0  0  0  0  0  0
    2.3146   -0.1579    0.9719 C   0  0  0  0  0  0  0  0  0  0  0  0
   -2.7158   -0.5123    0.7693 C   0  0  0  0  0  0  0  0  0  0  0  0
    3.6368   -0.6630    0.4117 C   0  0  0  0  0  0  0  0  0  0  0  0
   -4.9543   -0.5541   -0.0324 C   0  0  0  0  0  0  0  0  0  0  0  0
    5.8427    0.2167    0.2870 C   0  0  0  0  0  0  0  0  0  0  0  0
   -5.3218    0.4679    0.8431 C   0  0  0  0  0  0  0  0  0  0  0  0
   -5.7829   -0.8855   -1.1045 C   0  0  0  0  0  0  0  0  0  0  0  0
    6.2075   -0.7443   -0.6557 C   0  0  0  0  0  0  0  0  0  0  0  0
    6.6411    1.3443    0.4784 C   0  0  0  0  0  0  0  0  0  0  0  0
   -6.5177    1.1582    0.6466 C   0  0  0  0  0  0  0  0  0  0  0  0
   -6.9788   -0.1952   -1.3011 C   0  0  0  0  0  0  0  0  0  0  0  0
    7.3709   -0.5779   -1.4072 C   0  0  0  0  0  0  0  0  0  0  0  0
    7.8044    1.5108   -0.2729 C   0  0  0  0  0  0  0  0  0  0  0  0
   -7.3463    0.8267   -0.4255 C   0  0  0  0  0  0  0  0  0  0  0  0
    8.1693    0.5497   -1.2157 C   0  0  0  0  0  0  0  0  0  0  0  0
   -0.2771    0.7365    0.6480 H   0  0  0  0  0  0  0  0  0  0  0  0
   -0.2260   -0.4324    1.9694 H   0  0  0  0  0  0  0  0  0  0  0  0
    1.1537   -0.7546   -0.7486 H   0  0  0  0  0  0  0  0  0  0  0  0
    1.1933   -1.9511    0.5483 H   0  0  0  0  0  0  0  0  0  0  0  0
   -1.3362   -2.1437    0.5120 H   0  0  0  0  0  0  0  0  0  0  0  0
   -1.3602   -1.0112   -0.8232 H   0  0  0  0  0  0  0  0  0  0  0  0
    2.3055   -0.2904    2.0610 H   0  0  0  0  0  0  0  0  0  0  0  0
    2.2389    0.9234    0.8008 H   0  0  0  0  0  0  0  0  0  0  0  0
   -2.7857   -0.6221    1.8577 H   0  0  0  0  0  0  0  0  0  0  0  0
   -2.7468    0.5536    0.5079 H   0  0  0  0  0  0  0  0  0  0  0  0
    3.6205   -0.5099   -0.6753 H   0  0  0  0  0  0  0  0  0  0  0  0
    3.7524   -1.7316    0.6269 H   0  0  0  0  0  0  0  0  0  0  0  0
   -4.7192    0.7385    1.7051 H   0  0  0  0  0  0  0  0  0  0  0  0
   -5.5014   -1.6803   -1.7898 H   0  0  0  0  0  0  0  0  0  0  0  0
    5.6293   -1.6494   -0.8161 H   0  0  0  0  0  0  0  0  0  0  0  0
    6.3617    2.0962    1.2113 H   0  0  0  0  0  0  0  0  0  0  0  0
   -6.7946    1.9483    1.3400 H   0  0  0  0  0  0  0  0  0  0  0  0
   -7.6144   -0.4641   -2.1408 H   0  0  0  0  0  0  0  0  0  0  0  0
    7.6589   -1.3291   -2.1369 H   0  0  0  0  0  0  0  0  0  0  0  0
    8.4263    2.3886   -0.1237 H   0  0  0  0  0  0  0  0  0  0  0  0
    9.0760    0.6786   -1.7996 H   0  0  0  0  0  0  0  0  0  0  0  0
  1 20  1  0  0  0  0
  2  8  1  0  0  0  0
  2 10  1  0  0  0  0
  3  9  1  0  0  0  0
  3 11  1  0  0  0  0
  4  5  1  0  0  0  0
  4  6  1  0  0  0  0
  4 22  1  0  0  0  0
  4 23  1  0  0  0  0
  5  7  1  0  0  0  0
  5 24  1  0  0  0  0
  5 25  1  0  0  0  0
  6  8  1  0  0  0  0
  6 26  1  0  0  0  0
  6 27  1  0  0  0  0
  7  9  1  0  0  0  0
  7 28  1  0  0  0  0
  7 29  1  0  0  0  0
  8 30  1  0  0  0  0
  8 31  1  0  0  0  0
  9 32  1  0  0  0  0
  9 33  1  0  0  0  0
 10 12  2  0  0  0  0
 10 13  1  0  0  0  0
 11 14  2  0  0  0  0
 11 15  1  0  0  0  0
 12 16  1  0  0  0  0
 12 34  1  0  0  0  0
 13 17  2  0  0  0  0
 13 35  1  0  0  0  0
 14 18  1  0  0  0  0
 14 36  1  0  0  0  0
 15 19  2  0  0  0  0
 15 37  1  0  0  0  0
 16 20  2  0  0  0  0
 16 38  1  0  0  0  0
 17 20  1  0  0  0  0
 17 39  1  0  0  0  0
 18 21  2  0  0  0  0
 18 40  1  0  0  0  0
 19 21  1  0  0  0  0
 19 41  1  0  0  0  0
 21 42  1  0  0  0  0
M  END
> <PUBCHEM_COMPOUND_CID>
53786864

> <PUBCHEM_CONFORMER_RMSD>
1

> <PUBCHEM_CONFORMER_DIVERSEORDER>
1
66
48
167
3
18
147
135
136
76
118
144
113
146
175
65
116
70
37
10
128
121
89
86
85
58
110
102
11
125
97
51
154
38
182
39
131
149
61
72
9
78
41
130
50
105
129
12
45
111
122
4
63
43
30
20
82
59
16
80
179
13
112
99
94
141
56
60
81
28
67
148
35
183
22
181
55
106
123
178
57
7
52
44
157
137
161
40
2
73
31
115
92
68
114
96
32
126
46
172
64
180
42
17
71
83
184
124
29
109
6
25
5
54
159
165
95
90
166
26
14
8
104
88
69
107
139
176
84
142
21
53
156
133
174
77
177
24
98
160
164
33
36
119
101
23
162
145
127
87
100
91
79
138
74
134
169
150
27
143
152
49
120
62
132
34
93
117
103
19
47
153
140
75
171
151
15
168
170
158
155
173
108
163

> <PUBCHEM_MMFF94_PARTIAL_CHARGES>
26
1 -0.18
10 0.08
11 0.08
12 -0.15
13 -0.15
14 -0.15
15 -0.15
16 -0.15
17 -0.15
18 -0.15
19 -0.15
2 -0.36
20 0.18
21 -0.15
3 -0.36
34 0.15
35 0.15
36 0.15
37 0.15
38 0.15
39 0.15
40 0.15
41 0.15
42 0.15
8 0.28
9 0.28

> <PUBCHEM_EFFECTIVE_ROTOR_COUNT>
9

> <PUBCHEM_PHARMACOPHORE_FEATURES>
5
1 2 acceptor
1 3 acceptor
4 4 5 6 7 hydrophobe
6 10 12 13 16 17 20 rings
6 11 14 15 18 19 21 rings

> <PUBCHEM_HEAVY_ATOM_COUNT>
21

> <PUBCHEM_ATOM_DEF_STEREO_COUNT>
0

> <PUBCHEM_ATOM_UDEF_STEREO_COUNT>
0

> <PUBCHEM_BOND_DEF_STEREO_COUNT>
0

> <PUBCHEM_BOND_UDEF_STEREO_COUNT>
0

> <PUBCHEM_ISOTOPIC_ATOM_COUNT>
0

> <PUBCHEM_COMPONENT_COUNT>
1

> <PUBCHEM_CACTVS_TAUTO_COUNT>
1

> <PUBCHEM_CONFORMER_ID>
0334B8F000000001

> <PUBCHEM_MMFF94_ENERGY>
55.446

> <PUBCHEM_FEATURE_SELFOVERLAP>
25.371

> <PUBCHEM_SHAPE_FINGERPRINT>
10 15 14634870846699403571
10066227 49 15984833592948468214
10454371 7 18200879478594937033
10533779 47 14129324193270615152
106641 1 12973891411787668947
11135609 127 17845648283758673696
11315181 36 18272652355783072353
11386260 185 17489307534115762800
11638347 137 7997976773898027992
125118 31 15646765678903619830
13668630 136 13542464263046202769
13885169 127 10951779564508475835
14251757 52 18260828207273907896
14251764 18 12179848307532020346
14729087 3 17313381232041603167
14849402 71 13335035927142445526
15183329 4 17847064363285063962
15461852 350 18201434814251233359
155225 1 17967250896953883789
15690457 1 12391511979686091140
15706992 2 17023195906798479229
15716309 27 8646767802974696451
1577012 14 18187357731999047315
17093844 174 11963384142822515839
1754908 1 11602823501268348052
1754911 235 18343584040390949196
1818759 1 12751240332590214365
18335252 114 18131350817514763448
195137 175 18412548695593452193
2026 5 12895081699305738085
20735858 18 10665227051199574200
21095123 145 17385735724737788339
21095123 293 17530967964602761957
21150785 3 17775567541556939034
22224240 67 14490191622053853155
23035841 295 11384113055334488963
23576562 1 18128245886724440429
246663 6 12967130518761694659
3178227 256 13479136791527943062
33532 11 11743847954175200196
3383291 50 10952045667417543149
3711267 37 17895204289432315181
4073 2 18040155111199359003
5758199 1 17095241419162118723
59682541 35 12973611032133406133
59682541 52 17632301160174967702
636775 72 15864618476847105429
68570916 9 12613337398286209474
9953998 17 13479136787945236337

> <PUBCHEM_SHAPE_MULTIPOLES>
422.3
33.27
1.37
1.21
4.86
0.37
-0.22
14.26
-11.94
-0.54
-0.08
0.25
-0.04
0.16

> <PUBCHEM_SHAPE_SELFOVERLAP>
859.743

> <PUBCHEM_SHAPE_VOLUME>
245.3

> <PUBCHEM_COORDINATE_TYPE>
2
5
10

$$$$
