611841
  -OEChem-10022017393D

 34 35  0     0  0  0  0  0  0999 V2000
    3.9369    1.5022   -0.0157 O   0  0  0  0  0  0  0  0  0  0  0  0
    0.4956    0.4886    0.0143 C   0  0  0  0  0  0  0  0  0  0  0  0
   -3.3620    0.3814   -0.0182 C   0  0  0  0  0  0  0  0  0  0  0  0
   -1.9376   -0.1201    0.0172 C   0  0  0  0  0  0  0  0  0  0  0  0
    1.2066   -0.8073   -0.0131 C   0  0  0  0  0  0  0  0  0  0  0  0
   -0.9233    0.7595   -0.0060 C   0  0  0  0  0  0  0  0  0  0  0  0
    1.4553    1.4511    0.0200 C   0  0  0  0  0  0  0  0  0  0  0  0
    0.6709   -2.0459   -0.0017 C   0  0  0  0  0  0  0  0  0  0  0  0
    2.6352   -0.5194   -0.0365 C   0  0  0  0  0  0  0  0  0  0  0  0
   -1.8295   -1.5628    0.0827 C   0  0  0  0  0  0  0  0  0  0  0  0
    2.7611    0.8107   -0.0104 C   0  0  0  0  0  0  0  0  0  0  0  0
   -0.7513   -2.3562    0.0723 C   0  0  0  0  0  0  0  0  0  0  0  0
   -3.6016    1.2454    1.2066 C   0  0  0  0  0  0  0  0  0  0  0  0
   -3.5901    1.1467   -1.3085 C   0  0  0  0  0  0  0  0  0  0  0  0
    1.3309    2.9391    0.0421 C   0  0  0  0  0  0  0  0  0  0  0  0
    1.5028   -3.3131   -0.0453 C   0  0  0  0  0  0  0  0  0  0  0  0
   -4.0848   -0.4434    0.0099 H   0  0  0  0  0  0  0  0  0  0  0  0
   -1.1767    1.8142   -0.0586 H   0  0  0  0  0  0  0  0  0  0  0  0
    3.4485   -1.2243   -0.0594 H   0  0  0  0  0  0  0  0  0  0  0  0
   -2.7791   -2.0938    0.1542 H   0  0  0  0  0  0  0  0  0  0  0  0
   -0.9699   -3.4240    0.1365 H   0  0  0  0  0  0  0  0  0  0  0  0
   -3.0248    2.1766    1.1999 H   0  0  0  0  0  0  0  0  0  0  0  0
   -3.3663    0.7058    2.1313 H   0  0  0  0  0  0  0  0  0  0  0  0
   -4.6584    1.5323    1.2603 H   0  0  0  0  0  0  0  0  0  0  0  0
   -3.3462    0.5353   -2.1850 H   0  0  0  0  0  0  0  0  0  0  0  0
   -3.0105    2.0742   -1.3695 H   0  0  0  0  0  0  0  0  0  0  0  0
   -4.6457    1.4296   -1.3944 H   0  0  0  0  0  0  0  0  0  0  0  0
    1.8780    3.3515    0.8969 H   0  0  0  0  0  0  0  0  0  0  0  0
    0.3004    3.2907    0.1237 H   0  0  0  0  0  0  0  0  0  0  0  0
    1.7540    3.3677   -0.8728 H   0  0  0  0  0  0  0  0  0  0  0  0
    2.5749   -3.1428   -0.1597 H   0  0  0  0  0  0  0  0  0  0  0  0
    1.1976   -3.9398   -0.8918 H   0  0  0  0  0  0  0  0  0  0  0  0
    1.3661   -3.8891    0.8774 H   0  0  0  0  0  0  0  0  0  0  0  0
    4.6631    0.8552   -0.0394 H   0  0  0  0  0  0  0  0  0  0  0  0
  1 11  1  0  0  0  0
  1 34  1  0  0  0  0
  2  5  1  0  0  0  0
  2  6  1  0  0  0  0
  2  7  2  0  0  0  0
  3  4  1  0  0  0  0
  3 13  1  0  0  0  0
  3 14  1  0  0  0  0
  3 17  1  0  0  0  0
  4  6  2  0  0  0  0
  4 10  1  0  0  0  0
  5  8  2  0  0  0  0
  5  9  1  0  0  0  0
  6 18  1  0  0  0  0
  7 11  1  0  0  0  0
  7 15  1  0  0  0  0
  8 12  1  0  0  0  0
  8 16  1  0  0  0  0
  9 11  2  0  0  0  0
  9 19  1  0  0  0  0
 10 12  2  0  0  0  0
 10 20  1  0  0  0  0
 12 21  1  0  0  0  0
 13 22  1  0  0  0  0
 13 23  1  0  0  0  0
 13 24  1  0  0  0  0
 14 25  1  0  0  0  0
 14 26  1  0  0  0  0
 14 27  1  0  0  0  0
 15 28  1  0  0  0  0
 15 29  1  0  0  0  0
 15 30  1  0  0  0  0
 16 31  1  0  0  0  0
 16 32  1  0  0  0  0
 16 33  1  0  0  0  0
M  END
> <PUBCHEM_COMPOUND_CID>
611841

> <PUBCHEM_CONFORMER_RMSD>
0.6

> <PUBCHEM_CONFORMER_DIVERSEORDER>
1

> <PUBCHEM_MMFF94_PARTIAL_CHARGES>
17
1 -0.53
10 -0.15
11 0.08
12 -0.15
15 0.14
16 0.14
18 0.15
19 0.15
20 0.15
21 0.15
3 0.14
34 0.45
4 -0.14
6 -0.15
7 -0.14
8 -0.14
9 -0.15

> <PUBCHEM_EFFECTIVE_ROTOR_COUNT>
1

> <PUBCHEM_PHARMACOPHORE_FEATURES>
4
1 1 donor
3 3 13 14 hydrophobe
5 2 5 7 9 11 rings
7 2 4 5 6 8 10 12 rings

> <PUBCHEM_HEAVY_ATOM_COUNT>
16

> <PUBCHEM_ATOM_DEF_STEREO_COUNT>
0

> <PUBCHEM_ATOM_UDEF_STEREO_COUNT>
0

> <PUBCHEM_BOND_DEF_STEREO_COUNT>
0

> <PUBCHEM_BOND_UDEF_STEREO_COUNT>
0

> <PUBCHEM_ISOTOPIC_ATOM_COUNT>
0

> <PUBCHEM_COMPONENT_COUNT>
1

> <PUBCHEM_CACTVS_TAUTO_COUNT>
2

> <PUBCHEM_CONFORMER_ID>
0009560100000001

> <PUBCHEM_MMFF94_ENERGY>
64.5024

> <PUBCHEM_FEATURE_SELFOVERLAP>
20.327

> <PUBCHEM_SHAPE_FINGERPRINT>
10411042 1 17690280404834782243
10608611 8 18123467447549542552
10967382 1 18410856521027281946
10980938 120 18409166571708176779
11471102 20 18410570652531357061
11543360 7 15769486629381199504
116883 192 17476069129810149509
12553582 1 17762905363973306055
12654215 9 18190170200716097605
12730499 353 18261948558389063277
13140716 1 18339080509324663592
13380535 21 18336840731346134899
13380535 76 18409163333334789395
13897977 150 18409728456773543695
14178342 30 18341885320558409875
14251717 144 18339351955958835295
14790565 3 18267042595381449060
15309172 13 18409171042737671873
15442244 35 17909271273883623681
15775835 57 18334015024927259860
16945 1 18410573946517857483
18186145 218 18341619204406017229
18219364 16 18335425681556438425
20510252 161 17910396417733511763
20645477 70 18264198111591857327
21041028 32 17763193440451290409
21501502 16 18049161373818341020
21524375 3 18335419131409526027
21639500 275 18338783530038091269
2334 1 18122062280104846213
23402539 116 18272081734685965284
23419403 2 17248702391792180874
23558518 356 17829606519749312304
23559900 14 18271816765690858724
23598291 2 17916296131267518391
238 59 17829848180421498381
25 1 18409450262866880701
2748010 2 18265900343989921166
3060560 45 18411129238534131980
3071541 12 18268153067300975594
3071541 250 17907871608287258966
3091708 16 9118661687772416202
350125 39 18121507018248438345
352729 6 18050286169618135575
474 4 18412546522355967497
53812653 166 18412825810919654120
63268167 104 18339641123211378019
633830 44 18130518473747445004
7364860 26 18340769221862187078
77492 1 17631443472010850465
81228 2 17472695209666032379
8272917 22 18268994181412546909
84936 182 18131345276373955888

> <PUBCHEM_SHAPE_MULTIPOLES>
323.4
5.68
3.21
0.81
2.66
1.29
-0.03
-2.83
-0.1
-1.99
0.04
0.74
-0.2
0.04

> <PUBCHEM_SHAPE_SELFOVERLAP>
688.997

> <PUBCHEM_SHAPE_VOLUME>
181.2

> <PUBCHEM_COORDINATE_TYPE>
2
5
10

$$$$
