12454901
  -OEChem-10022016353D

 31 31  0     1  0  0  0  0  0999 V2000
   -3.9177   -0.4163    0.5351 O   0  0  0  0  0  0  0  0  0  0  0  0
    0.4637   -0.6851   -0.1858 C   0  0  1  0  0  0  0  0  0  0  0  0
    1.0130    0.3131   -1.2114 C   0  0  0  0  0  0  0  0  0  0  0  0
    0.9983   -0.3516    1.2171 C   0  0  0  0  0  0  0  0  0  0  0  0
    2.5447    0.2940   -1.2402 C   0  0  0  0  0  0  0  0  0  0  0  0
    3.1756    0.2608    0.1286 C   0  0  0  0  0  0  0  0  0  0  0  0
   -1.0351   -0.7060   -0.1959 C   0  0  0  0  0  0  0  0  0  0  0  0
    2.4616   -0.0167    1.2328 C   0  0  0  0  0  0  0  0  0  0  0  0
    4.6458    0.5527    0.1868 C   0  0  0  0  0  0  0  0  0  0  0  0
   -1.6283   -2.0310   -0.5854 C   0  0  0  0  0  0  0  0  0  0  0  0
   -1.7211    0.4093    0.1106 C   0  0  0  0  0  0  0  0  0  0  0  0
   -3.2057    0.5173    0.1757 C   0  0  0  0  0  0  0  0  0  0  0  0
   -3.7950    1.8596   -0.1680 C   0  0  0  0  0  0  0  0  0  0  0  0
    0.8452   -1.6802   -0.4573 H   0  0  0  0  0  0  0  0  0  0  0  0
    0.6881    1.3357   -0.9787 H   0  0  0  0  0  0  0  0  0  0  0  0
    0.6329    0.0852   -2.2153 H   0  0  0  0  0  0  0  0  0  0  0  0
    0.8308   -1.2155    1.8735 H   0  0  0  0  0  0  0  0  0  0  0  0
    0.4711    0.4929    1.6765 H   0  0  0  0  0  0  0  0  0  0  0  0
    2.8911    1.1779   -1.7891 H   0  0  0  0  0  0  0  0  0  0  0  0
    2.8859   -0.5857   -1.8002 H   0  0  0  0  0  0  0  0  0  0  0  0
    2.9467   -0.0125    2.2054 H   0  0  0  0  0  0  0  0  0  0  0  0
    5.0386    0.4947    1.2073 H   0  0  0  0  0  0  0  0  0  0  0  0
    4.8487    1.5596   -0.1919 H   0  0  0  0  0  0  0  0  0  0  0  0
    5.1993   -0.1673   -0.4247 H   0  0  0  0  0  0  0  0  0  0  0  0
   -2.6991   -1.9861   -0.7936 H   0  0  0  0  0  0  0  0  0  0  0  0
   -1.4632   -2.7663    0.2086 H   0  0  0  0  0  0  0  0  0  0  0  0
   -1.1560   -2.4014   -1.5024 H   0  0  0  0  0  0  0  0  0  0  0  0
   -1.2027    1.3391    0.3281 H   0  0  0  0  0  0  0  0  0  0  0  0
   -4.0353    2.3965    0.7529 H   0  0  0  0  0  0  0  0  0  0  0  0
   -3.0959    2.4541   -0.7630 H   0  0  0  0  0  0  0  0  0  0  0  0
   -4.7010    1.7125   -0.7626 H   0  0  0  0  0  0  0  0  0  0  0  0
  1 12  2  0  0  0  0
  2  3  1  0  0  0  0
  2  4  1  0  0  0  0
  2  7  1  0  0  0  0
  2 14  1  0  0  0  0
  3  5  1  0  0  0  0
  3 15  1  0  0  0  0
  3 16  1  0  0  0  0
  4  8  1  0  0  0  0
  4 17  1  0  0  0  0
  4 18  1  0  0  0  0
  5  6  1  0  0  0  0
  5 19  1  0  0  0  0
  5 20  1  0  0  0  0
  6  8  2  0  0  0  0
  6  9  1  0  0  0  0
  7 10  1  0  0  0  0
  7 11  2  0  0  0  0
  8 21  1  0  0  0  0
  9 22  1  0  0  0  0
  9 23  1  0  0  0  0
  9 24  1  0  0  0  0
 10 25  1  0  0  0  0
 10 26  1  0  0  0  0
 10 27  1  0  0  0  0
 11 12  1  0  0  0  0
 11 28  1  0  0  0  0
 12 13  1  0  0  0  0
 13 29  1  0  0  0  0
 13 30  1  0  0  0  0
 13 31  1  0  0  0  0
M  END
> <PUBCHEM_COMPOUND_CID>
12454901

> <PUBCHEM_CONFORMER_RMSD>
0.6

> <PUBCHEM_CONFORMER_DIVERSEORDER>
1
21
7
8
2
18
13
16
10
5
14
12
20
11
9
3
19
15
6
4
17

> <PUBCHEM_MMFF94_PARTIAL_CHARGES>
14
1 -0.57
10 0.14
11 -0.14
12 0.49
13 0.06
2 0.14
21 0.15
28 0.15
4 0.14
5 0.14
6 -0.28
7 -0.28
8 -0.29
9 0.14

> <PUBCHEM_EFFECTIVE_ROTOR_COUNT>
2.8

> <PUBCHEM_PHARMACOPHORE_FEATURES>
3
1 1 acceptor
1 10 hydrophobe
6 2 3 4 5 6 8 rings

> <PUBCHEM_HEAVY_ATOM_COUNT>
13

> <PUBCHEM_ATOM_DEF_STEREO_COUNT>
0

> <PUBCHEM_ATOM_UDEF_STEREO_COUNT>
1

> <PUBCHEM_BOND_DEF_STEREO_COUNT>
1

> <PUBCHEM_BOND_UDEF_STEREO_COUNT>
0

> <PUBCHEM_ISOTOPIC_ATOM_COUNT>
0

> <PUBCHEM_COMPONENT_COUNT>
1

> <PUBCHEM_CACTVS_TAUTO_COUNT>
8

> <PUBCHEM_CONFORMER_ID>
00BE0BF500000001

> <PUBCHEM_MMFF94_ENERGY>
18.8407

> <PUBCHEM_FEATURE_SELFOVERLAP>
15.223

> <PUBCHEM_SHAPE_FINGERPRINT>
10219947 1 15068627101551585686
10465860 228 18042688299451260283
10980938 120 17022902328741033042
11031198 65 16630530639201687708
11471102 20 15770059428211264008
11471102 22 15430037638779917360
12138202 97 17632571677830062207
12251169 10 16515689943988900865
124424 183 17346598569465360022
12500047 106 18201996651190965822
12932764 1 17895740885681711020
13581323 91 18409727382815513331
13675066 3 18113620084130093040
14252887 29 15357695254393463472
14911166 2 15051737516934273464
14943859 89 18343020003889637282
15219456 202 16988561372201935730
15375462 478 17603303739313699725
15501101 241 14923950045764519822
15775835 57 18334293154108752752
18186145 218 17560811982918709901
19026448 5 18337102480059976150
200 152 16660635306657676619
20201158 50 16487262070984660046
20233049 118 18412540985953296944
20279233 1 17060063678692682446
20645477 56 18201159939747446376
20645477 70 16271940289596379758
22926399 65 18272931617802164104
23402539 116 18060129929696504893
23402655 69 14979685342664993209
23557571 272 17988646353747728332
23559900 14 17775290456986383902
25 1 16773802471752109263
2748010 2 14834415852469689162
276578 36 18338520742010677627
305870 269 18337951169460382695
4047638 21 17918281943334490770
6333449 129 17704069633661433967
77492 1 17967529107665583615
81228 2 17842830303390137623

> <PUBCHEM_SHAPE_MULTIPOLES>
261.66
7.58
1.38
1.14
0.15
0.23
0.01
-3.03
-0.68
-1.56
0.22
0.7
0.01
-0.11

> <PUBCHEM_SHAPE_SELFOVERLAP>
518.776

> <PUBCHEM_SHAPE_VOLUME>
155.4

> <PUBCHEM_COORDINATE_TYPE>
2
5
10

$$$$
