91747945
  -OEChem-10022016343D

 39 40  0     1  0  0  0  0  0999 V2000
    0.2155   -0.3355   -0.6678 C   0  0  2  0  0  0  0  0  0  0  0  0
    1.5581    0.3072   -0.2239 C   0  0  1  0  0  0  0  0  0  0  0  0
   -0.8253    0.7643   -1.0462 C   0  0  1  0  0  0  0  0  0  0  0  0
    1.3554    1.3095    0.9180 C   0  0  0  0  0  0  0  0  0  0  0  0
    2.6416   -0.7125    0.1357 C   0  0  0  0  0  0  0  0  0  0  0  0
   -2.1412    0.0684   -1.4502 C   0  0  0  0  0  0  0  0  0  0  0  0
   -0.9287    1.8546    0.0222 C   0  0  0  0  0  0  0  0  0  0  0  0
    0.3913    2.4143    0.4981 C   0  0  0  0  0  0  0  0  0  0  0  0
   -0.3639   -1.3397    0.3064 C   0  0  0  0  0  0  0  0  0  0  0  0
   -2.7200   -0.8278   -0.3486 C   0  0  0  0  0  0  0  0  0  0  0  0
   -1.6812   -1.5607    0.4580 C   0  0  0  0  0  0  0  0  0  0  0  0
    2.8135   -1.7275   -0.9904 C   0  0  0  0  0  0  0  0  0  0  0  0
    3.9611   -0.0061    0.4322 C   0  0  0  0  0  0  0  0  0  0  0  0
   -2.0709    2.3595    0.5170 C   0  0  0  0  0  0  0  0  0  0  0  0
   -2.2053   -2.5682    1.4395 C   0  0  0  0  0  0  0  0  0  0  0  0
    0.4114   -0.8950   -1.5932 H   0  0  0  0  0  0  0  0  0  0  0  0
    1.9254    0.8796   -1.0903 H   0  0  0  0  0  0  0  0  0  0  0  0
   -0.4492    1.2710   -1.9476 H   0  0  0  0  0  0  0  0  0  0  0  0
    0.9802    0.8012    1.8151 H   0  0  0  0  0  0  0  0  0  0  0  0
    2.2908    1.8024    1.1980 H   0  0  0  0  0  0  0  0  0  0  0  0
    2.3716   -1.2602    1.0463 H   0  0  0  0  0  0  0  0  0  0  0  0
   -1.9409   -0.5569   -2.3317 H   0  0  0  0  0  0  0  0  0  0  0  0
   -2.8935    0.7972   -1.7743 H   0  0  0  0  0  0  0  0  0  0  0  0
    0.8361    3.0005   -0.3163 H   0  0  0  0  0  0  0  0  0  0  0  0
    0.2556    3.1037    1.3403 H   0  0  0  0  0  0  0  0  0  0  0  0
    0.3234   -1.9425    0.8912 H   0  0  0  0  0  0  0  0  0  0  0  0
   -3.3984   -1.5517   -0.8168 H   0  0  0  0  0  0  0  0  0  0  0  0
   -3.3325   -0.2315    0.3366 H   0  0  0  0  0  0  0  0  0  0  0  0
    3.9398    0.5234    1.3891 H   0  0  0  0  0  0  0  0  0  0  0  0
    4.7783   -0.7327    0.5079 H   0  0  0  0  0  0  0  0  0  0  0  0
    3.6799   -2.3709   -0.7985 H   0  0  0  0  0  0  0  0  0  0  0  0
    1.9534   -2.3962   -1.0848 H   0  0  0  0  0  0  0  0  0  0  0  0
    2.9789   -1.2340   -1.9543 H   0  0  0  0  0  0  0  0  0  0  0  0
    4.2272    0.7053   -0.3570 H   0  0  0  0  0  0  0  0  0  0  0  0
   -3.0486    2.0309    0.1890 H   0  0  0  0  0  0  0  0  0  0  0  0
   -2.0582    3.1462    1.2651 H   0  0  0  0  0  0  0  0  0  0  0  0
   -2.8638   -2.0814    2.1663 H   0  0  0  0  0  0  0  0  0  0  0  0
   -1.4019   -3.0613    1.9967 H   0  0  0  0  0  0  0  0  0  0  0  0
   -2.7752   -3.3447    0.9190 H   0  0  0  0  0  0  0  0  0  0  0  0
  1  2  1  0  0  0  0
  1  3  1  0  0  0  0
  1  9  1  0  0  0  0
  1 16  1  0  0  0  0
  2  4  1  0  0  0  0
  2  5  1  0  0  0  0
  2 17  1  0  0  0  0
  3  6  1  0  0  0  0
  3  7  1  0  0  0  0
  3 18  1  0  0  0  0
  4  8  1  0  0  0  0
  4 19  1  0  0  0  0
  4 20  1  0  0  0  0
  5 12  1  0  0  0  0
  5 13  1  0  0  0  0
  5 21  1  0  0  0  0
  6 10  1  0  0  0  0
  6 22  1  0  0  0  0
  6 23  1  0  0  0  0
  7  8  1  0  0  0  0
  7 14  2  0  0  0  0
  8 24  1  0  0  0  0
  8 25  1  0  0  0  0
  9 11  2  0  0  0  0
  9 26  1  0  0  0  0
 10 11  1  0  0  0  0
 10 27  1  0  0  0  0
 10 28  1  0  0  0  0
 11 15  1  0  0  0  0
 12 31  1  0  0  0  0
 12 32  1  0  0  0  0
 12 33  1  0  0  0  0
 13 29  1  0  0  0  0
 13 30  1  0  0  0  0
 13 34  1  0  0  0  0
 14 35  1  0  0  0  0
 14 36  1  0  0  0  0
 15 37  1  0  0  0  0
 15 38  1  0  0  0  0
 15 39  1  0  0  0  0
M  END
> <PUBCHEM_COMPOUND_CID>
91747945

> <PUBCHEM_CONFORMER_RMSD>
0.6

> <PUBCHEM_CONFORMER_DIVERSEORDER>
1
8
4
10
6
9
2
3
7
5

> <PUBCHEM_MMFF94_PARTIAL_CHARGES>
12
1 0.14
10 0.14
11 -0.28
14 -0.3
15 0.14
26 0.15
3 0.14
35 0.15
36 0.15
7 -0.28
8 0.14
9 -0.29

> <PUBCHEM_EFFECTIVE_ROTOR_COUNT>
2

> <PUBCHEM_PHARMACOPHORE_FEATURES>
3
3 5 12 13 hydrophobe
6 1 2 3 4 7 8 rings
6 1 3 6 9 10 11 rings

> <PUBCHEM_HEAVY_ATOM_COUNT>
15

> <PUBCHEM_ATOM_DEF_STEREO_COUNT>
1

> <PUBCHEM_ATOM_UDEF_STEREO_COUNT>
2

> <PUBCHEM_BOND_DEF_STEREO_COUNT>
0

> <PUBCHEM_BOND_UDEF_STEREO_COUNT>
0

> <PUBCHEM_ISOTOPIC_ATOM_COUNT>
0

> <PUBCHEM_COMPONENT_COUNT>
1

> <PUBCHEM_CACTVS_TAUTO_COUNT>
1

> <PUBCHEM_CONFORMER_ID>
0577F66900000001

> <PUBCHEM_MMFF94_ENERGY>
26.9806

> <PUBCHEM_FEATURE_SELFOVERLAP>
15.287

> <PUBCHEM_SHAPE_FINGERPRINT>
11471102 22 18131066082325208262
12491281 212 17130423476232052744
12532896 13 18122063096117035921
13024252 1 12757438215316817405
13027679 85 18337952406299999309
14115302 16 18113057146845315663
14761567 1 18115569470748610351
14817 1 17838659658064025957
15001771 113 18188219808822343573
15219456 202 18192703677575749512
15490181 7 17545596756145654028
16945 1 18200308947844012972
19049666 15 18341611460880727794
20201158 50 18411409640022414254
20510252 161 18410290272575933203
20645476 183 17829074033940853996
20711983 138 18336261340199577051
21061003 4 18200038472479111346
21501502 16 18413109467866695784
21524375 3 17478614511971213644
22721475 48 18409447028856792046
22802520 49 17914903036986804166
2334 1 17476910728888949964
23419403 2 17901081320720921316
23559900 14 18055348047313622558
2748010 2 18049992587133444100
31174 14 17688320400956876355
568465 68 17547566441116956401
576247 118 18055107399420230798
598444 67 18123764057885093553
7364860 26 17545335527745094403
81228 2 18410578344569851392
8809292 202 18334288794732765034
9709674 26 18270961229168622518

> <PUBCHEM_SHAPE_MULTIPOLES>
308.69
4.66
2.77
1.2
3.57
0.47
-0.09
-1.73
0.11
-1.46
0.98
-0.42
-0.29
0.91

> <PUBCHEM_SHAPE_SELFOVERLAP>
627.544

> <PUBCHEM_SHAPE_VOLUME>
172

> <PUBCHEM_COORDINATE_TYPE>
2
5
10

$$$$
