21631098
  -OEChem-09132011383D

 75 81  0     1  0  0  0  0  0999 V2000
    2.6360    1.3194   -1.3685 O   0  0  0  0  0  0  0  0  0  0  0  0
    1.1350    3.1236   -1.5629 O   0  0  0  0  0  0  0  0  0  0  0  0
    2.9342    0.4278    1.5455 O   0  0  0  0  0  0  0  0  0  0  0  0
    1.5883    5.2635   -0.6133 O   0  0  0  0  0  0  0  0  0  0  0  0
   -1.2143    1.5352    0.5901 O   0  0  0  0  0  0  0  0  0  0  0  0
    2.1635   -0.8816   -0.2252 O   0  0  0  0  0  0  0  0  0  0  0  0
    4.7864   -1.6048    2.2134 O   0  0  0  0  0  0  0  0  0  0  0  0
    3.8453   -4.2685    1.3769 O   0  0  0  0  0  0  0  0  0  0  0  0
   -2.3213   -0.1185    1.7472 O   0  0  0  0  0  0  0  0  0  0  0  0
    3.0504   -4.2345   -1.4021 O   0  0  0  0  0  0  0  0  0  0  0  0
    0.0984   -2.3453   -1.3581 O   0  0  0  0  0  0  0  0  0  0  0  0
   -1.2540   -1.2008   -2.8280 O   0  0  0  0  0  0  0  0  0  0  0  0
   -5.3128   -3.4765    1.5039 O   0  0  0  0  0  0  0  0  0  0  0  0
    1.1499    1.8069    0.3811 C   0  0  1  0  0  0  0  0  0  0  0  0
    2.5917    1.6826    0.9394 C   0  0  2  0  0  0  0  0  0  0  0  0
    1.2393    3.3057    0.7696 C   0  0  1  0  0  0  0  0  0  0  0  0
    3.3912    1.9848   -0.3389 C   0  0  2  0  0  0  0  0  0  0  0  0
    2.2231    2.8587    1.8862 C   0  0  0  0  0  0  0  0  0  0  0  0
    1.8124    3.8711   -0.5378 C   0  0  1  0  0  0  0  0  0  0  0  0
    1.2882    1.7607   -1.1310 C   0  0  2  0  0  0  0  0  0  0  0  0
    3.3113    3.5029   -0.6269 C   0  0  0  0  0  0  0  0  0  0  0  0
    0.0405    0.9783    0.9657 C   0  0  0  0  0  0  0  0  0  0  0  0
    4.8199    1.4806   -0.3113 C   0  0  0  0  0  0  0  0  0  0  0  0
    3.2661   -0.6255    0.6414 C   0  0  2  0  0  0  0  0  0  0  0  0
    3.5980   -1.8680    1.4678 C   0  0  1  0  0  0  0  0  0  0  0  0
   -2.3174    0.8848    1.0511 C   0  0  0  0  0  0  0  0  0  0  0  0
    3.8200   -3.0879    0.5733 C   0  0  2  0  0  0  0  0  0  0  0  0
    2.4407   -1.9123   -1.1749 C   0  0  1  0  0  0  0  0  0  0  0  0
    2.6936   -3.2362   -0.4496 C   0  0  1  0  0  0  0  0  0  0  0  0
   -3.5563    1.5613    0.5905 C   0  0  0  0  0  0  0  0  0  0  0  0
    1.2442   -2.0039   -2.1167 C   0  0  0  0  0  0  0  0  0  0  0  0
   -4.6857    1.4943    1.3805 C   0  0  0  0  0  0  0  0  0  0  0  0
   -3.5396    2.2366   -0.6128 C   0  0  0  0  0  0  0  0  0  0  0  0
   -5.8496    2.1301    0.9481 C   0  0  0  0  0  0  0  0  0  0  0  0
   -4.7035    2.8725   -1.0450 C   0  0  0  0  0  0  0  0  0  0  0  0
   -5.8584    2.8191   -0.2645 C   0  0  0  0  0  0  0  0  0  0  0  0
   -1.0956   -1.8785   -1.8245 C   0  0  0  0  0  0  0  0  0  0  0  0
   -2.2128   -2.3022   -0.9432 C   0  0  0  0  0  0  0  0  0  0  0  0
   -3.4984   -1.9170   -1.2639 C   0  0  0  0  0  0  0  0  0  0  0  0
   -1.9308   -3.0681    0.1695 C   0  0  0  0  0  0  0  0  0  0  0  0
   -4.5478   -2.3147   -0.4355 C   0  0  0  0  0  0  0  0  0  0  0  0
   -2.9803   -3.4661    0.9979 C   0  0  0  0  0  0  0  0  0  0  0  0
   -4.2889   -3.0895    0.6953 C   0  0  0  0  0  0  0  0  0  0  0  0
    0.3057    3.7616    1.1126 H   0  0  0  0  0  0  0  0  0  0  0  0
    1.7425    2.5551    2.8236 H   0  0  0  0  0  0  0  0  0  0  0  0
    3.0248    3.5602    2.1316 H   0  0  0  0  0  0  0  0  0  0  0  0
    0.5760    1.1201   -1.6566 H   0  0  0  0  0  0  0  0  0  0  0  0
    3.6810    3.7246   -1.6360 H   0  0  0  0  0  0  0  0  0  0  0  0
    3.9033    4.0925    0.0822 H   0  0  0  0  0  0  0  0  0  0  0  0
    0.0999    0.9657    2.0605 H   0  0  0  0  0  0  0  0  0  0  0  0
    0.0808   -0.0574    0.6181 H   0  0  0  0  0  0  0  0  0  0  0  0
    5.0387    0.7364   -1.0856 H   0  0  0  0  0  0  0  0  0  0  0  0
    5.4936    2.3088   -0.5749 H   0  0  0  0  0  0  0  0  0  0  0  0
    5.1804    1.1811    0.6786 H   0  0  0  0  0  0  0  0  0  0  0  0
    0.7300    5.4615   -0.2031 H   0  0  0  0  0  0  0  0  0  0  0  0
    4.1601   -0.4856    0.0603 H   0  0  0  0  0  0  0  0  0  0  0  0
    2.7997   -2.0671    2.1935 H   0  0  0  0  0  0  0  0  0  0  0  0
    4.7980   -3.0279    0.0799 H   0  0  0  0  0  0  0  0  0  0  0  0
    3.3147   -1.6284   -1.7762 H   0  0  0  0  0  0  0  0  0  0  0  0
    1.7917   -3.5854    0.0670 H   0  0  0  0  0  0  0  0  0  0  0  0
    4.9987   -2.4106    2.7148 H   0  0  0  0  0  0  0  0  0  0  0  0
    1.1152   -1.0364   -2.6148 H   0  0  0  0  0  0  0  0  0  0  0  0
    1.4040   -2.7705   -2.8821 H   0  0  0  0  0  0  0  0  0  0  0  0
    3.9754   -5.0246    0.7792 H   0  0  0  0  0  0  0  0  0  0  0  0
    3.8537   -3.9371   -1.8623 H   0  0  0  0  0  0  0  0  0  0  0  0
   -4.6902    0.9629    2.3274 H   0  0  0  0  0  0  0  0  0  0  0  0
   -2.6580    2.2808   -1.2453 H   0  0  0  0  0  0  0  0  0  0  0  0
   -6.7488    2.0888    1.5557 H   0  0  0  0  0  0  0  0  0  0  0  0
   -4.7118    3.4062   -1.9909 H   0  0  0  0  0  0  0  0  0  0  0  0
   -6.7647    3.3134   -0.6017 H   0  0  0  0  0  0  0  0  0  0  0  0
   -3.7175   -1.3122   -2.1386 H   0  0  0  0  0  0  0  0  0  0  0  0
   -0.9282   -3.3811    0.4425 H   0  0  0  0  0  0  0  0  0  0  0  0
   -5.5647   -2.0162   -0.6751 H   0  0  0  0  0  0  0  0  0  0  0  0
   -2.7655   -4.0683    1.8767 H   0  0  0  0  0  0  0  0  0  0  0  0
   -4.9527   -4.0041    2.2375 H   0  0  0  0  0  0  0  0  0  0  0  0
  1 17  1  0  0  0  0
  1 20  1  0  0  0  0
  2 19  1  0  0  0  0
  2 20  1  0  0  0  0
  3 15  1  0  0  0  0
  3 24  1  0  0  0  0
  4 19  1  0  0  0  0
  4 55  1  0  0  0  0
  5 22  1  0  0  0  0
  5 26  1  0  0  0  0
  6 24  1  0  0  0  0
  6 28  1  0  0  0  0
  7 25  1  0  0  0  0
  7 61  1  0  0  0  0
  8 27  1  0  0  0  0
  8 64  1  0  0  0  0
  9 26  2  0  0  0  0
 10 29  1  0  0  0  0
 10 65  1  0  0  0  0
 11 31  1  0  0  0  0
 11 37  1  0  0  0  0
 12 37  2  0  0  0  0
 13 43  1  0  0  0  0
 13 75  1  0  0  0  0
 14 15  1  0  0  0  0
 14 16  1  0  0  0  0
 14 20  1  0  0  0  0
 14 22  1  0  0  0  0
 15 17  1  0  0  0  0
 15 18  1  0  0  0  0
 16 18  1  0  0  0  0
 16 19  1  0  0  0  0
 16 44  1  0  0  0  0
 17 21  1  0  0  0  0
 17 23  1  0  0  0  0
 18 45  1  0  0  0  0
 18 46  1  0  0  0  0
 19 21  1  0  0  0  0
 20 47  1  0  0  0  0
 21 48  1  0  0  0  0
 21 49  1  0  0  0  0
 22 50  1  0  0  0  0
 22 51  1  0  0  0  0
 23 52  1  0  0  0  0
 23 53  1  0  0  0  0
 23 54  1  0  0  0  0
 24 25  1  0  0  0  0
 24 56  1  0  0  0  0
 25 27  1  0  0  0  0
 25 57  1  0  0  0  0
 26 30  1  0  0  0  0
 27 29  1  0  0  0  0
 27 58  1  0  0  0  0
 28 29  1  0  0  0  0
 28 31  1  0  0  0  0
 28 59  1  0  0  0  0
 29 60  1  0  0  0  0
 30 32  2  0  0  0  0
 30 33  1  0  0  0  0
 31 62  1  0  0  0  0
 31 63  1  0  0  0  0
 32 34  1  0  0  0  0
 32 66  1  0  0  0  0
 33 35  2  0  0  0  0
 33 67  1  0  0  0  0
 34 36  2  0  0  0  0
 34 68  1  0  0  0  0
 35 36  1  0  0  0  0
 35 69  1  0  0  0  0
 36 70  1  0  0  0  0
 37 38  1  0  0  0  0
 38 39  2  0  0  0  0
 38 40  1  0  0  0  0
 39 41  1  0  0  0  0
 39 71  1  0  0  0  0
 40 42  2  0  0  0  0
 40 72  1  0  0  0  0
 41 43  2  0  0  0  0
 41 73  1  0  0  0  0
 42 43  1  0  0  0  0
 42 74  1  0  0  0  0
M  END
> <PUBCHEM_COMPOUND_CID>
21631098

> <PUBCHEM_CONFORMER_RMSD>
1.2

> <PUBCHEM_CONFORMER_DIVERSEORDER>
1
9
51
46
12
27
10
25
37
45
7
34
48
5
54
33
65
36
50
21
31
53
17
58
14
59
19
13
26
8
56
55
15
63
60
24
39
47
3
30
11
29
2
40
18
62
32
22
64
57
61
42
43
35
4
16
49
38
6
23
20
41
44
28
52

> <PUBCHEM_MMFF94_PARTIAL_CHARGES>
52
1 -0.56
10 -0.68
11 -0.43
12 -0.57
13 -0.53
15 0.26
17 0.28
19 0.56
2 -0.56
20 0.56
22 0.28
24 0.56
25 0.28
26 0.63
27 0.28
28 0.28
29 0.28
3 -0.54
30 0.09
31 0.28
32 -0.15
33 -0.15
34 -0.15
35 -0.15
36 -0.15
37 0.63
38 0.09
39 -0.15
4 -0.68
40 -0.15
41 -0.15
42 -0.15
43 0.08
5 -0.43
55 0.4
6 -0.56
61 0.4
64 0.4
65 0.4
66 0.15
67 0.15
68 0.15
69 0.15
7 -0.68
70 0.15
71 0.15
72 0.15
73 0.15
74 0.15
75 0.45
8 -0.68
9 -0.57

> <PUBCHEM_EFFECTIVE_ROTOR_COUNT>
12

> <PUBCHEM_PHARMACOPHORE_FEATURES>
19
1 1 acceptor
1 10 acceptor
1 10 donor
1 12 acceptor
1 13 donor
1 2 acceptor
1 3 acceptor
1 4 acceptor
1 4 donor
1 6 acceptor
1 7 acceptor
1 7 donor
1 8 acceptor
1 8 donor
1 9 acceptor
10 1 2 14 15 16 17 18 19 20 21 rings
6 30 32 33 34 35 36 rings
6 38 39 40 41 42 43 rings
6 6 24 25 27 28 29 rings

> <PUBCHEM_HEAVY_ATOM_COUNT>
43

> <PUBCHEM_ATOM_DEF_STEREO_COUNT>
11

> <PUBCHEM_ATOM_UDEF_STEREO_COUNT>
0

> <PUBCHEM_BOND_DEF_STEREO_COUNT>
0

> <PUBCHEM_BOND_UDEF_STEREO_COUNT>
0

> <PUBCHEM_ISOTOPIC_ATOM_COUNT>
0

> <PUBCHEM_COMPONENT_COUNT>
1

> <PUBCHEM_CACTVS_TAUTO_COUNT>
3

> <PUBCHEM_CONFORMER_ID>
014A107A00000001

> <PUBCHEM_MMFF94_ENERGY>
154.133

> <PUBCHEM_FEATURE_SELFOVERLAP>
96.582

> <PUBCHEM_SHAPE_FINGERPRINT>
10190108 129 18047211901073839259
10439779 11 18271513260623729910
10675989 125 17551205790593348573
10930396 42 17905018393352368866
1100329 8 18267586810544522299
11421498 54 17904199583284753955
11828532 37 17677067741888212169
12422481 6 18200011994243381602
14004853 49 17912640508097154233
14117953 113 17981887445424010661
15001296 14 17981052125750673282
150020 26 18272366469025869755
15219462 58 17751656565340730547
15439362 3 18268712714804939085
16112460 7 18271254807452642953
17974551 9 18412252939739452663
19301679 30 18118412971971387011
20764821 26 18200887201325040135
340366 18 18336827481551212729
460360 51 18410298016945507739
66674814 147 17982737368249950209

> <PUBCHEM_SHAPE_MULTIPOLES>
808.62
10.97
6.84
1.93
10.28
0.46
-0.25
-0.03
2.99
-1.17
-0.45
-0.34
0.74
-0.39

> <PUBCHEM_SHAPE_SELFOVERLAP>
1809.568

> <PUBCHEM_SHAPE_VOLUME>
428.1

> <PUBCHEM_COORDINATE_TYPE>
2
5
10

$$$$
