21631106
  -OEChem-09132012013D

 74 80  0     1  0  0  0  0  0999 V2000
    2.3084    1.4934   -1.4296 O   0  0  0  0  0  0  0  0  0  0  0  0
    0.5918    3.0921   -1.6383 O   0  0  0  0  0  0  0  0  0  0  0  0
    2.7763    0.7379    1.5005 O   0  0  0  0  0  0  0  0  0  0  0  0
    0.7966    5.3005   -0.7622 O   0  0  0  0  0  0  0  0  0  0  0  0
   -1.4967    1.2954    0.6172 O   0  0  0  0  0  0  0  0  0  0  0  0
    2.1363   -0.7117   -0.2122 O   0  0  0  0  0  0  0  0  0  0  0  0
    4.8795   -1.0291    2.1802 O   0  0  0  0  0  0  0  0  0  0  0  0
    4.2580   -3.8135    1.4443 O   0  0  0  0  0  0  0  0  0  0  0  0
   -2.3658   -0.4446    1.8486 O   0  0  0  0  0  0  0  0  0  0  0  0
    3.4064   -3.9655   -1.3139 O   0  0  0  0  0  0  0  0  0  0  0  0
    0.2448   -2.4535   -1.2507 O   0  0  0  0  0  0  0  0  0  0  0  0
   -1.2697   -1.5312   -2.7188 O   0  0  0  0  0  0  0  0  0  0  0  0
    0.8108    1.8493    0.3417 C   0  0  1  0  0  0  0  0  0  0  0  0
    2.2683    1.9212    0.8673 C   0  0  2  0  0  0  0  0  0  0  0  0
    0.7221    3.3593    0.6846 C   0  0  1  0  0  0  0  0  0  0  0  0
    2.9970    2.2789   -0.4386 C   0  0  2  0  0  0  0  0  0  0  0  0
    1.7770    3.0723    1.7887 C   0  0  0  0  0  0  0  0  0  0  0  0
    1.1929    3.9493   -0.6524 C   0  0  1  0  0  0  0  0  0  0  0  0
    0.9216    1.7727   -1.1714 C   0  0  2  0  0  0  0  0  0  0  0  0
    2.7237    3.7659   -0.7682 C   0  0  0  0  0  0  0  0  0  0  0  0
   -0.1750    0.9094    0.9773 C   0  0  0  0  0  0  0  0  0  0  0  0
    4.4774    1.9556   -0.4321 C   0  0  0  0  0  0  0  0  0  0  0  0
    3.2168   -0.2946    0.6190 C   0  0  2  0  0  0  0  0  0  0  0  0
    3.7174   -1.4601    1.4723 C   0  0  1  0  0  0  0  0  0  0  0  0
   -2.5008    0.5291    1.1240 C   0  0  0  0  0  0  0  0  0  0  0  0
    4.0697   -2.6709    0.6080 C   0  0  2  0  0  0  0  0  0  0  0  0
    2.5189   -1.7300   -1.1384 C   0  0  1  0  0  0  0  0  0  0  0  0
    2.9490   -2.9891   -0.3819 C   0  0  1  0  0  0  0  0  0  0  0  0
   -3.8234    1.0331    0.6751 C   0  0  0  0  0  0  0  0  0  0  0  0
    1.3232   -1.9979   -2.0471 C   0  0  0  0  0  0  0  0  0  0  0  0
   -4.9188    0.8525    1.4945 C   0  0  0  0  0  0  0  0  0  0  0  0
   -3.9159    1.6669   -0.5471 C   0  0  0  0  0  0  0  0  0  0  0  0
   -6.1613    1.3262    1.0732 C   0  0  0  0  0  0  0  0  0  0  0  0
   -5.1584    2.1407   -0.9683 C   0  0  0  0  0  0  0  0  0  0  0  0
   -6.2810    1.9702   -0.1581 C   0  0  0  0  0  0  0  0  0  0  0  0
   -1.0074   -2.1523   -1.7006 C   0  0  0  0  0  0  0  0  0  0  0  0
   -2.0447   -2.6822   -0.7799 C   0  0  0  0  0  0  0  0  0  0  0  0
   -3.3746   -2.4683   -1.0797 C   0  0  0  0  0  0  0  0  0  0  0  0
   -1.6469   -3.3727    0.3466 C   0  0  0  0  0  0  0  0  0  0  0  0
   -4.3491   -2.9662   -0.2150 C   0  0  0  0  0  0  0  0  0  0  0  0
   -2.6216   -3.8708    1.2112 C   0  0  0  0  0  0  0  0  0  0  0  0
   -3.9727   -3.6675    0.9303 C   0  0  0  0  0  0  0  0  0  0  0  0
   -0.2533    3.7073    1.0375 H   0  0  0  0  0  0  0  0  0  0  0  0
    2.4907    3.8746    1.9939 H   0  0  0  0  0  0  0  0  0  0  0  0
    1.3577    2.7416    2.7462 H   0  0  0  0  0  0  0  0  0  0  0  0
    0.2833    1.0331   -1.6605 H   0  0  0  0  0  0  0  0  0  0  0  0
    3.0417    3.9994   -1.7921 H   0  0  0  0  0  0  0  0  0  0  0  0
    3.2530    4.4460   -0.0912 H   0  0  0  0  0  0  0  0  0  0  0  0
   -0.0141   -0.1239    0.6587 H   0  0  0  0  0  0  0  0  0  0  0  0
   -0.0913    0.9388    2.0702 H   0  0  0  0  0  0  0  0  0  0  0  0
    4.7702    1.2199   -1.1899 H   0  0  0  0  0  0  0  0  0  0  0  0
    5.0377    2.8517   -0.7362 H   0  0  0  0  0  0  0  0  0  0  0  0
    4.8931    1.7342    0.5567 H   0  0  0  0  0  0  0  0  0  0  0  0
   -0.0706    5.4042   -0.3367 H   0  0  0  0  0  0  0  0  0  0  0  0
    4.0741   -0.0641    0.0121 H   0  0  0  0  0  0  0  0  0  0  0  0
    2.9653   -1.7329    2.2231 H   0  0  0  0  0  0  0  0  0  0  0  0
    5.0221   -2.5066    0.0889 H   0  0  0  0  0  0  0  0  0  0  0  0
    3.3381   -1.3598   -1.7692 H   0  0  0  0  0  0  0  0  0  0  0  0
    2.1084   -3.4301    0.1668 H   0  0  0  0  0  0  0  0  0  0  0  0
    5.2005   -1.7864    2.6991 H   0  0  0  0  0  0  0  0  0  0  0  0
    1.0649   -1.0698   -2.5694 H   0  0  0  0  0  0  0  0  0  0  0  0
    1.5605   -2.7628   -2.7939 H   0  0  0  0  0  0  0  0  0  0  0  0
    4.4681   -4.5663    0.8655 H   0  0  0  0  0  0  0  0  0  0  0  0
    4.1568   -3.5861   -1.8023 H   0  0  0  0  0  0  0  0  0  0  0  0
   -4.8375    0.3548    2.4563 H   0  0  0  0  0  0  0  0  0  0  0  0
   -3.0601    1.7992   -1.2024 H   0  0  0  0  0  0  0  0  0  0  0  0
   -7.0355    1.1938    1.7040 H   0  0  0  0  0  0  0  0  0  0  0  0
   -5.2527    2.6392   -1.9287 H   0  0  0  0  0  0  0  0  0  0  0  0
   -7.2485    2.3383   -0.4867 H   0  0  0  0  0  0  0  0  0  0  0  0
   -3.6851   -1.9227   -1.9657 H   0  0  0  0  0  0  0  0  0  0  0  0
   -0.6078   -3.5514    0.6037 H   0  0  0  0  0  0  0  0  0  0  0  0
   -5.4011   -2.8058   -0.4323 H   0  0  0  0  0  0  0  0  0  0  0  0
   -2.3292   -4.4157    2.1041 H   0  0  0  0  0  0  0  0  0  0  0  0
   -4.7316   -4.0539    1.6043 H   0  0  0  0  0  0  0  0  0  0  0  0
  1 16  1  0  0  0  0
  1 19  1  0  0  0  0
  2 18  1  0  0  0  0
  2 19  1  0  0  0  0
  3 14  1  0  0  0  0
  3 23  1  0  0  0  0
  4 18  1  0  0  0  0
  4 54  1  0  0  0  0
  5 21  1  0  0  0  0
  5 25  1  0  0  0  0
  6 23  1  0  0  0  0
  6 27  1  0  0  0  0
  7 24  1  0  0  0  0
  7 60  1  0  0  0  0
  8 26  1  0  0  0  0
  8 63  1  0  0  0  0
  9 25  2  0  0  0  0
 10 28  1  0  0  0  0
 10 64  1  0  0  0  0
 11 30  1  0  0  0  0
 11 36  1  0  0  0  0
 12 36  2  0  0  0  0
 13 14  1  0  0  0  0
 13 15  1  0  0  0  0
 13 19  1  0  0  0  0
 13 21  1  0  0  0  0
 14 16  1  0  0  0  0
 14 17  1  0  0  0  0
 15 17  1  0  0  0  0
 15 18  1  0  0  0  0
 15 43  1  0  0  0  0
 16 20  1  0  0  0  0
 16 22  1  0  0  0  0
 17 44  1  0  0  0  0
 17 45  1  0  0  0  0
 18 20  1  0  0  0  0
 19 46  1  0  0  0  0
 20 47  1  0  0  0  0
 20 48  1  0  0  0  0
 21 49  1  0  0  0  0
 21 50  1  0  0  0  0
 22 51  1  0  0  0  0
 22 52  1  0  0  0  0
 22 53  1  0  0  0  0
 23 24  1  0  0  0  0
 23 55  1  0  0  0  0
 24 26  1  0  0  0  0
 24 56  1  0  0  0  0
 25 29  1  0  0  0  0
 26 28  1  0  0  0  0
 26 57  1  0  0  0  0
 27 28  1  0  0  0  0
 27 30  1  0  0  0  0
 27 58  1  0  0  0  0
 28 59  1  0  0  0  0
 29 31  2  0  0  0  0
 29 32  1  0  0  0  0
 30 61  1  0  0  0  0
 30 62  1  0  0  0  0
 31 33  1  0  0  0  0
 31 65  1  0  0  0  0
 32 34  2  0  0  0  0
 32 66  1  0  0  0  0
 33 35  2  0  0  0  0
 33 67  1  0  0  0  0
 34 35  1  0  0  0  0
 34 68  1  0  0  0  0
 35 69  1  0  0  0  0
 36 37  1  0  0  0  0
 37 38  2  0  0  0  0
 37 39  1  0  0  0  0
 38 40  1  0  0  0  0
 38 70  1  0  0  0  0
 39 41  2  0  0  0  0
 39 71  1  0  0  0  0
 40 42  2  0  0  0  0
 40 72  1  0  0  0  0
 41 42  1  0  0  0  0
 41 73  1  0  0  0  0
 42 74  1  0  0  0  0
M  END
> <PUBCHEM_COMPOUND_CID>
21631106

> <PUBCHEM_CONFORMER_RMSD>
1.2

> <PUBCHEM_CONFORMER_DIVERSEORDER>
1
32
8
25
53
54
45
23
15
38
10
16
14
49
47
28
37
52
41
5
40
51
50
48
13
3
36
11
29
21
12
44
55
7
46
17
6
24
18
4
9
34
26
19
31
20
56
22
33
39
35
2
42
27
30
43

> <PUBCHEM_MMFF94_PARTIAL_CHARGES>
51
1 -0.56
10 -0.68
11 -0.43
12 -0.57
14 0.26
16 0.28
18 0.56
19 0.56
2 -0.56
21 0.28
23 0.56
24 0.28
25 0.63
26 0.28
27 0.28
28 0.28
29 0.09
3 -0.54
30 0.28
31 -0.15
32 -0.15
33 -0.15
34 -0.15
35 -0.15
36 0.63
37 0.09
38 -0.15
39 -0.15
4 -0.68
40 -0.15
41 -0.15
42 -0.15
5 -0.43
54 0.4
6 -0.56
60 0.4
63 0.4
64 0.4
65 0.15
66 0.15
67 0.15
68 0.15
69 0.15
7 -0.68
70 0.15
71 0.15
72 0.15
73 0.15
74 0.15
8 -0.68
9 -0.57

> <PUBCHEM_EFFECTIVE_ROTOR_COUNT>
12

> <PUBCHEM_PHARMACOPHORE_FEATURES>
18
1 1 acceptor
1 10 acceptor
1 10 donor
1 12 acceptor
1 2 acceptor
1 3 acceptor
1 4 acceptor
1 4 donor
1 6 acceptor
1 7 acceptor
1 7 donor
1 8 acceptor
1 8 donor
1 9 acceptor
10 1 2 13 14 15 16 17 18 19 20 rings
6 29 31 32 33 34 35 rings
6 37 38 39 40 41 42 rings
6 6 23 24 26 27 28 rings

> <PUBCHEM_HEAVY_ATOM_COUNT>
42

> <PUBCHEM_ATOM_DEF_STEREO_COUNT>
11

> <PUBCHEM_ATOM_UDEF_STEREO_COUNT>
0

> <PUBCHEM_BOND_DEF_STEREO_COUNT>
0

> <PUBCHEM_BOND_UDEF_STEREO_COUNT>
0

> <PUBCHEM_ISOTOPIC_ATOM_COUNT>
0

> <PUBCHEM_COMPONENT_COUNT>
1

> <PUBCHEM_CACTVS_TAUTO_COUNT>
1

> <PUBCHEM_CONFORMER_ID>
014A108200000001

> <PUBCHEM_MMFF94_ENERGY>
152.1666

> <PUBCHEM_FEATURE_SELFOVERLAP>
91.506

> <PUBCHEM_SHAPE_FINGERPRINT>
10032420 55 17122832804584515665
10190108 129 17830198031246042275
10439779 11 18271234019072243619
10930396 42 18048853240349208538
1100329 8 18339364063493046931
11421498 54 17688026839841623531
11828532 37 17604446128513088937
12422481 6 18270944813676906538
12788726 201 17694228068595994601
13782708 43 17969241005433422441
14117953 113 18125440817602362701
14725015 67 17906167356700210163
15001296 14 17908711978662398082
150020 26 18343864441773379787
15219462 58 17534919768116400299
15439362 3 18340491071644253389
16112460 7 18270692987070144393
17974551 9 18339916104155423599
20764821 26 18271539645288493191
340366 18 18408603635019452825
460360 51 18337397127569813883
508706 21 18267036118601629639
66674814 147 18126290740296362017

> <PUBCHEM_SHAPE_MULTIPOLES>
793.91
10.68
6.71
1.91
10.77
0.48
-0.18
0
2.85
-1.9
-0.83
-0.45
0.59
-0.71

> <PUBCHEM_SHAPE_SELFOVERLAP>
1776.131

> <PUBCHEM_SHAPE_VOLUME>
420.2

> <PUBCHEM_COORDINATE_TYPE>
2
5
10

$$$$
