9986231
  -OEChem-09132011233D

 75 78  0     1  0  0  0  0  0999 V2000
    1.0163    4.0834   -0.6741 O   0  0  0  0  0  0  0  0  0  0  0  0
   -0.6759    2.5494   -0.0516 O   0  0  0  0  0  0  0  0  0  0  0  0
   -3.0776    1.2324    0.1800 O   0  0  0  0  0  0  0  0  0  0  0  0
    2.5297    4.7383    1.7756 O   0  0  0  0  0  0  0  0  0  0  0  0
    1.0085    2.5411    2.5666 O   0  0  0  0  0  0  0  0  0  0  0  0
   -4.0348    3.6954   -2.3560 O   0  0  0  0  0  0  0  0  0  0  0  0
   -6.5312    2.3836   -1.7209 O   0  0  0  0  0  0  0  0  0  0  0  0
   -4.0448   -0.7713    0.8823 O   0  0  0  0  0  0  0  0  0  0  0  0
   -6.0697   -0.4522   -1.0685 O   0  0  0  0  0  0  0  0  0  0  0  0
    3.9747    1.6404    0.5418 O   0  0  0  0  0  0  0  0  0  0  0  0
    6.0403    1.1477    1.4307 O   0  0  0  0  0  0  0  0  0  0  0  0
    0.5116   -2.1267    1.2629 O   0  0  0  0  0  0  0  0  0  0  0  0
   -5.8117   -2.7606    1.2366 O   0  0  0  0  0  0  0  0  0  0  0  0
    7.0744   -3.2764   -0.8967 O   0  0  0  0  0  0  0  0  0  0  0  0
    2.7760   -1.9357   -2.5281 O   0  0  0  0  0  0  0  0  0  0  0  0
    4.8693   -3.7488   -2.5045 O   0  0  0  0  0  0  0  0  0  0  0  0
    2.6040    3.5436    0.9971 C   0  0  1  0  0  0  0  0  0  0  0  0
    1.3643    2.6942    1.2064 C   0  0  2  0  0  0  0  0  0  0  0  0
   -2.8874    2.1770   -0.8749 C   0  0  1  0  0  0  0  0  0  0  0  0
    0.3134    3.4565    0.4125 C   0  0  1  0  0  0  0  0  0  0  0  0
   -4.2256    2.8189   -1.2484 C   0  0  2  0  0  0  0  0  0  0  0  0
   -5.2544    1.7510   -1.6203 C   0  0  1  0  0  0  0  0  0  0  0  0
    2.4347    3.9277   -0.4641 C   0  0  0  0  0  0  0  0  0  0  0  0
   -5.3146    0.6486   -0.5629 C   0  0  2  0  0  0  0  0  0  0  0  0
   -1.8802    3.2139   -0.3878 C   0  0  0  0  0  0  0  0  0  0  0  0
   -3.9165    0.1455   -0.2039 C   0  0  1  0  0  0  0  0  0  0  0  0
    3.9141    2.8373    1.2999 C   0  0  0  0  0  0  0  0  0  0  0  0
   -3.1166   -1.7739    0.9504 C   0  0  0  0  0  0  0  0  0  0  0  0
    5.0975    0.8837    0.7008 C   0  0  0  0  0  0  0  0  0  0  0  0
   -3.5039   -3.1130    0.8991 C   0  0  0  0  0  0  0  0  0  0  0  0
   -1.7673   -1.4424    1.0728 C   0  0  0  0  0  0  0  0  0  0  0  0
    5.0383   -0.3356   -0.1444 C   0  0  0  0  0  0  0  0  0  0  0  0
   -2.5420   -4.1205    0.9703 C   0  0  0  0  0  0  0  0  0  0  0  0
   -0.8052   -2.4499    1.1438 C   0  0  0  0  0  0  0  0  0  0  0  0
   -4.9072   -3.4810    0.7719 C   0  0  0  0  0  0  0  0  0  0  0  0
   -1.1926   -3.7890    1.0926 C   0  0  0  0  0  0  0  0  0  0  0  0
    3.9257   -0.5707   -0.9521 C   0  0  0  0  0  0  0  0  0  0  0  0
    6.0943   -1.2468   -0.1293 C   0  0  0  0  0  0  0  0  0  0  0  0
   -5.3003   -4.7698    0.0602 C   0  0  0  0  0  0  0  0  0  0  0  0
    6.0374   -2.3933   -0.9217 C   0  0  0  0  0  0  0  0  0  0  0  0
    3.8688   -1.7172   -1.7446 C   0  0  0  0  0  0  0  0  0  0  0  0
    4.9247   -2.6284   -1.7294 C   0  0  0  0  0  0  0  0  0  0  0  0
    1.4416   -3.2065    1.3301 C   0  0  0  0  0  0  0  0  0  0  0  0
    1.4886    1.6895    0.7832 H   0  0  0  0  0  0  0  0  0  0  0  0
   -2.4464    1.6548   -1.7351 H   0  0  0  0  0  0  0  0  0  0  0  0
   -0.1418    4.2381    1.0348 H   0  0  0  0  0  0  0  0  0  0  0  0
   -4.6060    3.4226   -0.4154 H   0  0  0  0  0  0  0  0  0  0  0  0
   -5.0425    1.3323   -2.6111 H   0  0  0  0  0  0  0  0  0  0  0  0
    2.9237    4.8713   -0.7246 H   0  0  0  0  0  0  0  0  0  0  0  0
    2.7750    3.1485   -1.1540 H   0  0  0  0  0  0  0  0  0  0  0  0
   -5.8361    1.0042    0.3337 H   0  0  0  0  0  0  0  0  0  0  0  0
   -2.2700    3.7155    0.5065 H   0  0  0  0  0  0  0  0  0  0  0  0
   -1.6865    3.9620   -1.1646 H   0  0  0  0  0  0  0  0  0  0  0  0
   -3.4755   -0.3734   -1.0680 H   0  0  0  0  0  0  0  0  0  0  0  0
    3.9778    2.6062    2.3706 H   0  0  0  0  0  0  0  0  0  0  0  0
    4.7625    3.4854    1.0466 H   0  0  0  0  0  0  0  0  0  0  0  0
    3.3032    5.2864    1.5591 H   0  0  0  0  0  0  0  0  0  0  0  0
    0.1514    2.0825    2.5937 H   0  0  0  0  0  0  0  0  0  0  0  0
   -3.6841    3.1717   -3.0965 H   0  0  0  0  0  0  0  0  0  0  0  0
   -6.7562    2.7512   -0.8492 H   0  0  0  0  0  0  0  0  0  0  0  0
   -5.6185   -0.7888   -1.8614 H   0  0  0  0  0  0  0  0  0  0  0  0
   -1.4459   -0.4069    1.1337 H   0  0  0  0  0  0  0  0  0  0  0  0
   -2.8149   -5.1720    0.9472 H   0  0  0  0  0  0  0  0  0  0  0  0
   -0.4983   -4.6207    1.1453 H   0  0  0  0  0  0  0  0  0  0  0  0
    3.0875    0.1206   -0.9834 H   0  0  0  0  0  0  0  0  0  0  0  0
    6.9641   -1.0696    0.4987 H   0  0  0  0  0  0  0  0  0  0  0  0
   -4.6037   -4.9936   -0.7523 H   0  0  0  0  0  0  0  0  0  0  0  0
   -5.3258   -5.5926    0.7787 H   0  0  0  0  0  0  0  0  0  0  0  0
   -6.2919   -4.6426   -0.3845 H   0  0  0  0  0  0  0  0  0  0  0  0
    1.2788   -3.8238    2.2199 H   0  0  0  0  0  0  0  0  0  0  0  0
    1.4392   -3.7973    0.4077 H   0  0  0  0  0  0  0  0  0  0  0  0
    2.4402   -2.7671    1.4247 H   0  0  0  0  0  0  0  0  0  0  0  0
    7.7544   -2.9507   -0.2822 H   0  0  0  0  0  0  0  0  0  0  0  0
    2.1454   -1.2053   -2.4069 H   0  0  0  0  0  0  0  0  0  0  0  0
    5.6855   -4.2597   -2.3644 H   0  0  0  0  0  0  0  0  0  0  0  0
  1 20  1  0  0  0  0
  1 23  1  0  0  0  0
  2 20  1  0  0  0  0
  2 25  1  0  0  0  0
  3 19  1  0  0  0  0
  3 26  1  0  0  0  0
  4 17  1  0  0  0  0
  4 57  1  0  0  0  0
  5 18  1  0  0  0  0
  5 58  1  0  0  0  0
  6 21  1  0  0  0  0
  6 59  1  0  0  0  0
  7 22  1  0  0  0  0
  7 60  1  0  0  0  0
  8 26  1  0  0  0  0
  8 28  1  0  0  0  0
  9 24  1  0  0  0  0
  9 61  1  0  0  0  0
 10 27  1  0  0  0  0
 10 29  1  0  0  0  0
 11 29  2  0  0  0  0
 12 34  1  0  0  0  0
 12 43  1  0  0  0  0
 13 35  2  0  0  0  0
 14 40  1  0  0  0  0
 14 73  1  0  0  0  0
 15 41  1  0  0  0  0
 15 74  1  0  0  0  0
 16 42  1  0  0  0  0
 16 75  1  0  0  0  0
 17 18  1  0  0  0  0
 17 23  1  0  0  0  0
 17 27  1  0  0  0  0
 18 20  1  0  0  0  0
 18 44  1  0  0  0  0
 19 21  1  0  0  0  0
 19 25  1  0  0  0  0
 19 45  1  0  0  0  0
 20 46  1  0  0  0  0
 21 22  1  0  0  0  0
 21 47  1  0  0  0  0
 22 24  1  0  0  0  0
 22 48  1  0  0  0  0
 23 49  1  0  0  0  0
 23 50  1  0  0  0  0
 24 26  1  0  0  0  0
 24 51  1  0  0  0  0
 25 52  1  0  0  0  0
 25 53  1  0  0  0  0
 26 54  1  0  0  0  0
 27 55  1  0  0  0  0
 27 56  1  0  0  0  0
 28 30  2  0  0  0  0
 28 31  1  0  0  0  0
 29 32  1  0  0  0  0
 30 33  1  0  0  0  0
 30 35  1  0  0  0  0
 31 34  2  0  0  0  0
 31 62  1  0  0  0  0
 32 37  2  0  0  0  0
 32 38  1  0  0  0  0
 33 36  2  0  0  0  0
 33 63  1  0  0  0  0
 34 36  1  0  0  0  0
 35 39  1  0  0  0  0
 36 64  1  0  0  0  0
 37 41  1  0  0  0  0
 37 65  1  0  0  0  0
 38 40  2  0  0  0  0
 38 66  1  0  0  0  0
 39 67  1  0  0  0  0
 39 68  1  0  0  0  0
 39 69  1  0  0  0  0
 40 42  1  0  0  0  0
 41 42  2  0  0  0  0
 43 70  1  0  0  0  0
 43 71  1  0  0  0  0
 43 72  1  0  0  0  0
M  END
> <PUBCHEM_COMPOUND_CID>
9986231

> <PUBCHEM_CONFORMER_RMSD>
1.2

> <PUBCHEM_CONFORMER_DIVERSEORDER>
1
51
115
165
16
145
26
33
79
44
98
119
19
114
88
91
101
57
35
162
81
138
146
113
52
31
73
135
75
126
110
58
48
137
71
166
151
87
144
148
84
14
45
106
116
136
25
139
77
164
54
117
17
89
125
28
130
24
30
107
131
118
93
99
124
161
20
154
22
50
109
6
97
142
38
53
46
155
102
96
65
64
150
127
134
86
34
37
2
156
80
158
69
103
63
18
55
147
159
132
105
121
42
112
128
68
60
59
39
47
100
133
74
122
23
120
141
111
160
70
149
153
143
49
56
43
152
13
163
15
94
3
21
76
123
90
29
66
157
83
129
140
67
92
12
82
36
5
61
85
78
40
11
7
9
104
4
32
27
95
8
10
108
41
62
72

> <PUBCHEM_MMFF94_PARTIAL_CHARGES>
56
1 -0.56
10 -0.43
11 -0.57
12 -0.36
13 -0.57
14 -0.53
15 -0.53
16 -0.53
17 0.28
18 0.28
19 0.28
2 -0.56
20 0.56
21 0.28
22 0.28
23 0.28
24 0.28
25 0.28
26 0.56
27 0.28
28 0.08
29 0.63
3 -0.56
30 0.09
31 -0.15
32 0.09
33 -0.15
34 0.08
35 0.42
36 -0.15
37 -0.15
38 -0.15
39 0.06
4 -0.68
40 0.08
41 0.08
42 0.08
43 0.28
5 -0.68
57 0.4
58 0.4
59 0.4
6 -0.68
60 0.4
61 0.4
62 0.15
63 0.15
64 0.15
65 0.15
66 0.15
7 -0.68
73 0.45
74 0.45
75 0.45
8 -0.36
9 -0.68

> <PUBCHEM_EFFECTIVE_ROTOR_COUNT>
13.2

> <PUBCHEM_PHARMACOPHORE_FEATURES>
24
1 1 acceptor
1 11 acceptor
1 12 acceptor
1 13 acceptor
1 14 donor
1 15 donor
1 16 donor
1 2 acceptor
1 3 acceptor
1 4 acceptor
1 4 donor
1 5 acceptor
1 5 donor
1 6 acceptor
1 6 donor
1 7 acceptor
1 7 donor
1 8 acceptor
1 9 acceptor
1 9 donor
5 1 17 18 20 23 rings
6 28 30 31 33 34 36 rings
6 3 19 21 22 24 26 rings
6 32 37 38 40 41 42 rings

> <PUBCHEM_HEAVY_ATOM_COUNT>
43

> <PUBCHEM_ATOM_DEF_STEREO_COUNT>
8

> <PUBCHEM_ATOM_UDEF_STEREO_COUNT>
0

> <PUBCHEM_BOND_DEF_STEREO_COUNT>
0

> <PUBCHEM_BOND_UDEF_STEREO_COUNT>
0

> <PUBCHEM_ISOTOPIC_ATOM_COUNT>
0

> <PUBCHEM_COMPONENT_COUNT>
1

> <PUBCHEM_CACTVS_TAUTO_COUNT>
28

> <PUBCHEM_CONFORMER_ID>
009860B700000001

> <PUBCHEM_MMFF94_ENERGY>
147.5716

> <PUBCHEM_FEATURE_SELFOVERLAP>
121.947

> <PUBCHEM_SHAPE_FINGERPRINT>
10049733 57 18341337768490330471
10556698 54 18265033766251421445
10864689 126 18263358088723641741
11513181 2 18122619715325489063
11828042 226 18046338640451323981
11828532 37 18261683665516730555
12128747 34 18265335186597331380
12202916 173 18056466263080686230
12758862 65 17916281885267374858
1361 87 18198357173498220054
150020 26 18199467851867366128
15264996 44 18126868202854638646
15351339 4 17975126539903349130
15392192 29 18055936315682411940
15927050 60 18263626464930944165
16067689 134 17765152770431697121
17627616 140 17757269280116389811
17852330 28 14613238810543624654
19301676 85 18268708303767726319
21792965 11 17614845106564666772
23572383 38 18341611504004240204
437795 96 18341047540280534790
4403749 210 17623829629231653800
4435113 14 18413671305238809156
508706 21 18261947548470192883
5171179 24 18339084903403417031
54131252 337 18053072281472047039

> <PUBCHEM_SHAPE_MULTIPOLES>
791.01
16.5
7.91
2.02
3.62
0.72
-0.57
-8.77
-5.71
-1.75
0.47
0.94
0.06
7.96

> <PUBCHEM_SHAPE_SELFOVERLAP>
1694.814

> <PUBCHEM_SHAPE_VOLUME>
434.4

> <PUBCHEM_COORDINATE_TYPE>
2
5
10

$$$$
