6325460
  -OEChem-09132010173D

 73 77  0     1  0  0  0  0  0999 V2000
    3.0325    1.9125   -0.2947 O   0  0  0  0  0  0  0  0  0  0  0  0
   -4.6808    0.0531    0.7791 O   0  0  0  0  0  0  0  0  0  0  0  0
    3.3837   -0.1507   -1.3260 O   0  0  0  0  0  0  0  0  0  0  0  0
   -4.3091   -1.1886   -1.1609 O   0  0  0  0  0  0  0  0  0  0  0  0
    7.0712    2.5733    0.0509 O   0  0  0  0  0  0  0  0  0  0  0  0
    5.2194    4.1251    1.6378 O   0  0  0  0  0  0  0  0  0  0  0  0
   -8.7073   -0.7494    0.6765 O   0  0  0  0  0  0  0  0  0  0  0  0
   -7.7152    1.4224    2.3059 O   0  0  0  0  0  0  0  0  0  0  0  0
    6.0427   -0.1573   -0.3579 O   0  0  0  0  0  0  0  0  0  0  0  0
   -7.0718   -1.0444   -1.7563 O   0  0  0  0  0  0  0  0  0  0  0  0
    1.1059    3.4787    0.8849 O   0  0  0  0  0  0  0  0  0  0  0  0
   -3.5103    1.8596    2.4886 O   0  0  0  0  0  0  0  0  0  0  0  0
    0.3080   -1.9191   -0.3256 O   0  0  0  0  0  0  0  0  0  0  0  0
    1.3650    1.3665   -2.4916 O   0  0  0  0  0  0  0  0  0  0  0  0
   -1.1542    1.8508   -2.9972 O   0  0  0  0  0  0  0  0  0  0  0  0
    5.1969   -5.0246    2.1445 O   0  0  0  0  0  0  0  0  0  0  0  0
    5.7938    2.0941    0.4742 C   0  0  1  0  0  0  0  0  0  0  0  0
    4.8417    3.2879    0.5481 C   0  0  1  0  0  0  0  0  0  0  0  0
   -7.5238   -0.0083    0.3756 C   0  0  1  0  0  0  0  0  0  0  0  0
   -6.8923    0.4309    1.6968 C   0  0  1  0  0  0  0  0  0  0  0  0
    5.2898    1.0448   -0.5168 C   0  0  2  0  0  0  0  0  0  0  0  0
    3.3981    2.8198    0.7465 C   0  0  1  0  0  0  0  0  0  0  0  0
   -6.5658   -0.8847   -0.4313 C   0  0  2  0  0  0  0  0  0  0  0  0
   -5.4934    1.0071    1.4651 C   0  0  1  0  0  0  0  0  0  0  0  0
    3.8146    0.7205   -0.2810 C   0  0  1  0  0  0  0  0  0  0  0  0
   -5.1768   -0.2527   -0.5220 C   0  0  1  0  0  0  0  0  0  0  0  0
    2.4157    3.9861    0.7062 C   0  0  0  0  0  0  0  0  0  0  0  0
   -4.7967    1.3443    2.7795 C   0  0  0  0  0  0  0  0  0  0  0  0
    2.0534   -0.4774   -1.1749 C   0  0  0  0  0  0  0  0  0  0  0  0
   -3.0120   -0.8027   -1.3281 C   0  0  0  0  0  0  0  0  0  0  0  0
   -0.3626   -0.0129   -1.6705 C   0  0  0  0  0  0  0  0  0  0  0  0
    1.0442    0.3826   -1.8386 C   0  0  0  0  0  0  0  0  0  0  0  0
    1.6344   -1.5440   -0.4697 C   0  0  0  0  0  0  0  0  0  0  0  0
   -0.6578   -1.1485   -0.9195 C   0  0  0  0  0  0  0  0  0  0  0  0
   -1.9841   -1.5458   -0.7472 C   0  0  0  0  0  0  0  0  0  0  0  0
   -2.7148    0.3348   -2.0797 C   0  0  0  0  0  0  0  0  0  0  0  0
   -1.3892    0.7338   -2.2539 C   0  0  0  0  0  0  0  0  0  0  0  0
    2.5673   -2.4561    0.2156 C   0  0  0  0  0  0  0  0  0  0  0  0
    2.9459   -2.2060    1.5347 C   0  0  0  0  0  0  0  0  0  0  0  0
    3.0730   -3.5702   -0.4552 C   0  0  0  0  0  0  0  0  0  0  0  0
    3.8295   -3.0691    2.1829 C   0  0  0  0  0  0  0  0  0  0  0  0
    3.9565   -4.4334    0.1930 C   0  0  0  0  0  0  0  0  0  0  0  0
    4.3347   -4.1828    1.5120 C   0  0  0  0  0  0  0  0  0  0  0  0
    5.9432    1.6443    1.4635 H   0  0  0  0  0  0  0  0  0  0  0  0
    4.9316    3.8829   -0.3691 H   0  0  0  0  0  0  0  0  0  0  0  0
   -7.8435    0.8591   -0.2150 H   0  0  0  0  0  0  0  0  0  0  0  0
   -6.8483   -0.4247    2.3818 H   0  0  0  0  0  0  0  0  0  0  0  0
    5.4523    1.3922   -1.5447 H   0  0  0  0  0  0  0  0  0  0  0  0
    3.2780    2.3090    1.7117 H   0  0  0  0  0  0  0  0  0  0  0  0
   -6.5065   -1.8874    0.0085 H   0  0  0  0  0  0  0  0  0  0  0  0
   -5.5393    1.9237    0.8611 H   0  0  0  0  0  0  0  0  0  0  0  0
    3.7040    0.2219    0.6875 H   0  0  0  0  0  0  0  0  0  0  0  0
   -5.2297    0.6632   -1.1252 H   0  0  0  0  0  0  0  0  0  0  0  0
    2.6220    4.7130    1.4975 H   0  0  0  0  0  0  0  0  0  0  0  0
    2.4480    4.4893   -0.2659 H   0  0  0  0  0  0  0  0  0  0  0  0
   -4.6664    0.4541    3.4039 H   0  0  0  0  0  0  0  0  0  0  0  0
   -5.3487    2.0971    3.3493 H   0  0  0  0  0  0  0  0  0  0  0  0
    7.3573    3.2452    0.6932 H   0  0  0  0  0  0  0  0  0  0  0  0
    5.1367    3.6075    2.4569 H   0  0  0  0  0  0  0  0  0  0  0  0
   -9.2878   -0.1707    1.1999 H   0  0  0  0  0  0  0  0  0  0  0  0
   -7.7543    2.1886    1.7085 H   0  0  0  0  0  0  0  0  0  0  0  0
    5.6800   -0.8128   -0.9783 H   0  0  0  0  0  0  0  0  0  0  0  0
   -7.1337   -0.1637   -2.1640 H   0  0  0  0  0  0  0  0  0  0  0  0
   -2.2185   -2.4312   -0.1616 H   0  0  0  0  0  0  0  0  0  0  0  0
    0.4971    4.2360    0.8489 H   0  0  0  0  0  0  0  0  0  0  0  0
   -3.0320    1.1855    1.9760 H   0  0  0  0  0  0  0  0  0  0  0  0
   -3.5081    0.9094   -2.5510 H   0  0  0  0  0  0  0  0  0  0  0  0
    2.5524   -1.3491    2.0762 H   0  0  0  0  0  0  0  0  0  0  0  0
    2.7872   -3.7784   -1.4834 H   0  0  0  0  0  0  0  0  0  0  0  0
   -0.2039    2.0362   -3.0422 H   0  0  0  0  0  0  0  0  0  0  0  0
    4.1187   -2.8698    3.2112 H   0  0  0  0  0  0  0  0  0  0  0  0
    4.3432   -5.2974   -0.3407 H   0  0  0  0  0  0  0  0  0  0  0  0
    5.4450   -5.7392    1.5331 H   0  0  0  0  0  0  0  0  0  0  0  0
  1 22  1  0  0  0  0
  1 25  1  0  0  0  0
  2 24  1  0  0  0  0
  2 26  1  0  0  0  0
  3 25  1  0  0  0  0
  3 29  1  0  0  0  0
  4 26  1  0  0  0  0
  4 30  1  0  0  0  0
  5 17  1  0  0  0  0
  5 58  1  0  0  0  0
  6 18  1  0  0  0  0
  6 59  1  0  0  0  0
  7 19  1  0  0  0  0
  7 60  1  0  0  0  0
  8 20  1  0  0  0  0
  8 61  1  0  0  0  0
  9 21  1  0  0  0  0
  9 62  1  0  0  0  0
 10 23  1  0  0  0  0
 10 63  1  0  0  0  0
 11 27  1  0  0  0  0
 11 65  1  0  0  0  0
 12 28  1  0  0  0  0
 12 66  1  0  0  0  0
 13 33  1  0  0  0  0
 13 34  1  0  0  0  0
 14 32  2  0  0  0  0
 15 37  1  0  0  0  0
 15 70  1  0  0  0  0
 16 43  1  0  0  0  0
 16 73  1  0  0  0  0
 17 18  1  0  0  0  0
 17 21  1  0  0  0  0
 17 44  1  0  0  0  0
 18 22  1  0  0  0  0
 18 45  1  0  0  0  0
 19 20  1  0  0  0  0
 19 23  1  0  0  0  0
 19 46  1  0  0  0  0
 20 24  1  0  0  0  0
 20 47  1  0  0  0  0
 21 25  1  0  0  0  0
 21 48  1  0  0  0  0
 22 27  1  0  0  0  0
 22 49  1  0  0  0  0
 23 26  1  0  0  0  0
 23 50  1  0  0  0  0
 24 28  1  0  0  0  0
 24 51  1  0  0  0  0
 25 52  1  0  0  0  0
 26 53  1  0  0  0  0
 27 54  1  0  0  0  0
 27 55  1  0  0  0  0
 28 56  1  0  0  0  0
 28 57  1  0  0  0  0
 29 32  1  0  0  0  0
 29 33  2  0  0  0  0
 30 35  1  0  0  0  0
 30 36  2  0  0  0  0
 31 32  1  0  0  0  0
 31 34  1  0  0  0  0
 31 37  2  0  0  0  0
 33 38  1  0  0  0  0
 34 35  2  0  0  0  0
 35 64  1  0  0  0  0
 36 37  1  0  0  0  0
 36 67  1  0  0  0  0
 38 39  2  0  0  0  0
 38 40  1  0  0  0  0
 39 41  1  0  0  0  0
 39 68  1  0  0  0  0
 40 42  2  0  0  0  0
 40 69  1  0  0  0  0
 41 43  2  0  0  0  0
 41 71  1  0  0  0  0
 42 43  1  0  0  0  0
 42 72  1  0  0  0  0
M  END
> <PUBCHEM_COMPOUND_CID>
6325460

> <PUBCHEM_CONFORMER_RMSD>
1.2

> <PUBCHEM_CONFORMER_DIVERSEORDER>
1
140
105
154
112
34
132
110
129
136
109
155
14
101
76
46
88
124
22
133
56
79
82
157
145
85
92
139
89
117
40
156
151
121
158
2
135
138
137
72
93
17
107
148
147
52
42
116
59
95
80
149
53
150
21
91
55
6
153
3
33
104
159
142
61
51
81
41
144
125
47
131
122
69
84
5
108
146
8
143
128
57
18
43
10
94
7
99
106
23
111
77
141
45
126
37
24
26
114
11
78
152
20
64
28
29
68
102
4
100
63
38
36
13
15
35
58
39
103
25
73
12
160
86
50
113
83
19
127
71
54
74
31
9
16
44
120
67
60
118
96
32
62
130
49
65
134
119
115
123
97
87
48
90
98
30
66
75
70
27

> <PUBCHEM_MMFF94_PARTIAL_CHARGES>
59
1 -0.56
10 -0.68
11 -0.68
12 -0.68
13 -0.16
14 -0.57
15 -0.53
16 -0.53
17 0.28
18 0.28
19 0.28
2 -0.56
20 0.28
21 0.28
22 0.28
23 0.28
24 0.28
25 0.56
26 0.56
27 0.28
28 0.28
29 0.09
3 -0.36
30 0.08
31 0.09
32 0.47
33 0.05
34 0.08
35 -0.15
36 -0.15
37 0.08
38 0.03
39 -0.15
4 -0.36
40 -0.15
41 -0.15
42 -0.15
43 0.08
5 -0.68
58 0.4
59 0.4
6 -0.68
60 0.4
61 0.4
62 0.4
63 0.4
64 0.15
65 0.4
66 0.4
67 0.15
68 0.15
69 0.15
7 -0.68
70 0.45
71 0.15
72 0.15
73 0.45
8 -0.68
9 -0.68

> <PUBCHEM_EFFECTIVE_ROTOR_COUNT>
9.4

> <PUBCHEM_PHARMACOPHORE_FEATURES>
29
1 1 acceptor
1 10 acceptor
1 10 donor
1 11 acceptor
1 11 donor
1 12 acceptor
1 12 donor
1 13 acceptor
1 14 acceptor
1 15 donor
1 16 donor
1 2 acceptor
1 3 acceptor
1 4 acceptor
1 5 acceptor
1 5 donor
1 6 acceptor
1 6 donor
1 7 acceptor
1 7 donor
1 8 acceptor
1 8 donor
1 9 acceptor
1 9 donor
6 1 17 18 21 22 25 rings
6 13 29 31 32 33 34 rings
6 2 19 20 23 24 26 rings
6 30 31 34 35 36 37 rings
6 38 39 40 41 42 43 rings

> <PUBCHEM_HEAVY_ATOM_COUNT>
43

> <PUBCHEM_ATOM_DEF_STEREO_COUNT>
10

> <PUBCHEM_ATOM_UDEF_STEREO_COUNT>
0

> <PUBCHEM_BOND_DEF_STEREO_COUNT>
0

> <PUBCHEM_BOND_UDEF_STEREO_COUNT>
0

> <PUBCHEM_ISOTOPIC_ATOM_COUNT>
0

> <PUBCHEM_COMPONENT_COUNT>
1

> <PUBCHEM_CACTVS_TAUTO_COUNT>
21

> <PUBCHEM_CONFORMER_ID>
006084D400000001

> <PUBCHEM_MMFF94_ENERGY>
143.9639

> <PUBCHEM_FEATURE_SELFOVERLAP>
147.371

> <PUBCHEM_SHAPE_FINGERPRINT>
10190108 129 18409452484083066556
10674148 151 17917434285402546776
10985338 8 17060627706714972308
11534866 41 17822289145407727931
11796584 16 14706928449891554181
12522641 24 18411698790575213662
12758862 65 17677883544618279442
13540713 4 17605817158359608158
13751561 76 16950564372181174546
13782708 43 17750796545596051063
14028597 1 18272931626972458064
14114211 68 18113911476898551278
14347424 109 18336543816320762863
14565420 104 18339357586729428112
14739800 52 17988922310097782185
15264996 151 18413392034398551369
15392192 104 17605008077016040935
15475509 84 18194682562224795644
15510800 12 16371019485883667899
16096371 109 18260269693484081136
16112460 7 18335987484669728539
21033648 29 18048866688134365404
21796203 349 18265888056864817750
21927370 108 17977658716032307458
21987483 16 18335143137819199995
22121540 332 14261068706579479130
22122407 14 17773606094533754449
2260408 40 18114471101787584477
3178227 256 18334287696249590340
394071 54 18333731329415735702
508180 173 16556793125322051688
5104073 3 18115020784787456029
5385378 56 18408599288750094718
563151 74 18409451422619190963
58083652 198 18338224969725979775
613672 6 16660365883422229679
6698420 124 18053938731221221296
86090 222 17168151104483551370
9896288 288 16461645980084498060

> <PUBCHEM_SHAPE_MULTIPOLES>
791.01
19.77
5.29
2.55
33.41
1.91
0.16
-2.38
9.78
-14.51
3.51
2.38
-0.42
-3.1

> <PUBCHEM_SHAPE_SELFOVERLAP>
1721.183

> <PUBCHEM_SHAPE_VOLUME>
423.2

> <PUBCHEM_COORDINATE_TYPE>
2
5
10

$$$$
