69301
  -OEChem-09132012363D

 24 24  0     0  0  0  0  0  0999 V2000
    2.7192   -0.4482    0.0001 O   0  0  0  0  0  0  0  0  0  0  0  0
   -0.9714    2.5790    0.0001 O   0  0  0  0  0  0  0  0  0  0  0  0
   -1.7479   -2.1307   -0.0002 O   0  0  0  0  0  0  0  0  0  0  0  0
    1.3763   -0.2270   -0.0001 C   0  0  0  0  0  0  0  0  0  0  0  0
   -0.4916    1.3053    0.0000 C   0  0  0  0  0  0  0  0  0  0  0  0
   -0.8847   -1.0784    0.0001 C   0  0  0  0  0  0  0  0  0  0  0  0
    0.8848    1.0783   -0.0001 C   0  0  0  0  0  0  0  0  0  0  0  0
    0.4915   -1.3054   -0.0001 C   0  0  0  0  0  0  0  0  0  0  0  0
   -1.3763    0.2269    0.0002 C   0  0  0  0  0  0  0  0  0  0  0  0
    3.1535   -1.8073    0.0001 C   0  0  0  0  0  0  0  0  0  0  0  0
   -0.0115    3.6346    0.0000 C   0  0  0  0  0  0  0  0  0  0  0  0
   -3.1421   -1.8271    0.0001 C   0  0  0  0  0  0  0  0  0  0  0  0
    1.6226    1.8739   -0.0002 H   0  0  0  0  0  0  0  0  0  0  0  0
    0.8115   -2.3422   -0.0002 H   0  0  0  0  0  0  0  0  0  0  0  0
   -2.4341    0.4683    0.0002 H   0  0  0  0  0  0  0  0  0  0  0  0
    2.8393   -2.3303    0.9097 H   0  0  0  0  0  0  0  0  0  0  0  0
    4.2484   -1.7966    0.0002 H   0  0  0  0  0  0  0  0  0  0  0  0
    2.8395   -2.3303   -0.9096 H   0  0  0  0  0  0  0  0  0  0  0  0
   -0.5681    4.5775    0.0000 H   0  0  0  0  0  0  0  0  0  0  0  0
    0.5985    3.6239   -0.9098 H   0  0  0  0  0  0  0  0  0  0  0  0
    0.5987    3.6239    0.9095 H   0  0  0  0  0  0  0  0  0  0  0  0
   -3.4380   -1.2934   -0.9094 H   0  0  0  0  0  0  0  0  0  0  0  0
   -3.4377   -1.2936    0.9098 H   0  0  0  0  0  0  0  0  0  0  0  0
   -3.6803   -2.7807    0.0000 H   0  0  0  0  0  0  0  0  0  0  0  0
  1  4  1  0  0  0  0
  1 10  1  0  0  0  0
  2  5  1  0  0  0  0
  2 11  1  0  0  0  0
  3  6  1  0  0  0  0
  3 12  1  0  0  0  0
  4  7  2  0  0  0  0
  4  8  1  0  0  0  0
  5  7  1  0  0  0  0
  5  9  2  0  0  0  0
  6  8  2  0  0  0  0
  6  9  1  0  0  0  0
  7 13  1  0  0  0  0
  8 14  1  0  0  0  0
  9 15  1  0  0  0  0
 10 16  1  0  0  0  0
 10 17  1  0  0  0  0
 10 18  1  0  0  0  0
 11 19  1  0  0  0  0
 11 20  1  0  0  0  0
 11 21  1  0  0  0  0
 12 22  1  0  0  0  0
 12 23  1  0  0  0  0
 12 24  1  0  0  0  0
M  END
> <PUBCHEM_COMPOUND_CID>
69301

> <PUBCHEM_CONFORMER_RMSD>
0.6

> <PUBCHEM_CONFORMER_DIVERSEORDER>
2
1

> <PUBCHEM_MMFF94_PARTIAL_CHARGES>
15
1 -0.36
10 0.28
11 0.28
12 0.28
13 0.15
14 0.15
15 0.15
2 -0.36
3 -0.36
4 0.08
5 0.08
6 0.08
7 -0.15
8 -0.15
9 -0.15

> <PUBCHEM_EFFECTIVE_ROTOR_COUNT>
3

> <PUBCHEM_PHARMACOPHORE_FEATURES>
4
1 1 acceptor
1 2 acceptor
1 3 acceptor
6 4 5 6 7 8 9 rings

> <PUBCHEM_HEAVY_ATOM_COUNT>
12

> <PUBCHEM_ATOM_DEF_STEREO_COUNT>
0

> <PUBCHEM_ATOM_UDEF_STEREO_COUNT>
0

> <PUBCHEM_BOND_DEF_STEREO_COUNT>
0

> <PUBCHEM_BOND_UDEF_STEREO_COUNT>
0

> <PUBCHEM_ISOTOPIC_ATOM_COUNT>
0

> <PUBCHEM_COMPONENT_COUNT>
1

> <PUBCHEM_CACTVS_TAUTO_COUNT>
1

> <PUBCHEM_CONFORMER_ID>
00010EB500000002

> <PUBCHEM_MMFF94_ENERGY>
56.5203

> <PUBCHEM_FEATURE_SELFOVERLAP>
20.297

> <PUBCHEM_SHAPE_FINGERPRINT>
1 1 17473825507619269125
12716758 59 17981320097751242426
13380535 76 17619341013915885734
14648413 74 17831579043588709843
16945 1 18266741264390295814
19021347 4 17690279313590452363
193761 8 18410856576983637284
20645476 183 17469071876766668070
20645477 70 17760917846804498823
20871998 184 18201154356443345462
21040471 1 17834394519141628356
21524375 3 17406258941913561996
23402539 116 18125423233932432309
23530152 11 17474107601160986565
23552423 10 17764309839811625623
23559900 14 17623569749614094966
241688 4 18410855468718096808
2748010 2 18340476859016416828
305870 269 17257085399070235377
3071541 12 17906740554556499189
3071541 250 18265628756096556326
3091708 16 9281326740704067851
54173680 148 18337672988443961299
7364860 26 17907580581323815661
81228 2 18338516335278948650

> <PUBCHEM_SHAPE_MULTIPOLES>
229.35
3.63
3.63
0.59
0.47
3.79
0
-3.79
0
-0.47
0
0
0
0

> <PUBCHEM_SHAPE_SELFOVERLAP>
469.486

> <PUBCHEM_SHAPE_VOLUME>
134.7

> <PUBCHEM_COORDINATE_TYPE>
2
5
10

$$$$
