10258205
  -OEChem-09132011293D

 75 78  0     1  0  0  0  0  0999 V2000
    2.1807    0.1433    0.8489 O   0  0  0  0  0  0  0  0  0  0  0  0
   -1.0832    1.3318   -0.0428 O   0  0  0  0  0  0  0  0  0  0  0  0
   -2.4946    2.1592    1.6682 O   0  0  0  0  0  0  0  0  0  0  0  0
   -0.9964   -1.5224    0.1105 O   0  0  0  0  0  0  0  0  0  0  0  0
   -3.9064    4.5051    0.5619 O   0  0  0  0  0  0  0  0  0  0  0  0
    0.7267   -3.6970    0.9215 O   0  0  0  0  0  0  0  0  0  0  0  0
   -2.7742    3.3477   -1.7067 O   0  0  0  0  0  0  0  0  0  0  0  0
    4.3874   -0.6127    0.9013 O   0  0  0  0  0  0  0  0  0  0  0  0
    3.5052   -3.1765    0.0909 O   0  0  0  0  0  0  0  0  0  0  0  0
   -6.4936    3.4557    0.7316 O   0  0  0  0  0  0  0  0  0  0  0  0
   -1.9963   -1.6759    2.1784 O   0  0  0  0  0  0  0  0  0  0  0  0
    5.2668    3.7125   -0.9044 O   0  0  0  0  0  0  0  0  0  0  0  0
    6.5232   -2.2379    0.9390 O   0  0  0  0  0  0  0  0  0  0  0  0
   -4.4520   -1.9588   -3.2737 O   0  0  0  0  0  0  0  0  0  0  0  0
   -6.8784   -2.3306    0.8385 O   0  0  0  0  0  0  0  0  0  0  0  0
   -6.8499   -2.3009   -1.9308 O   0  0  0  0  0  0  0  0  0  0  0  0
    0.8663   -0.0036    0.3084 C   0  0  1  0  0  0  0  0  0  0  0  0
    0.2786   -1.3541    0.7246 C   0  0  2  0  0  0  0  0  0  0  0  0
   -4.1669    3.1258    0.2995 C   0  0  1  0  0  0  0  0  0  0  0  0
    1.1985   -2.4996    0.3017 C   0  0  1  0  0  0  0  0  0  0  0  0
   -3.0855    2.5395   -0.5886 C   0  0  2  0  0  0  0  0  0  0  0  0
   -1.9155    2.4040    0.3750 C   0  0  2  0  0  0  0  0  0  0  0  0
    2.6418   -2.2381    0.7325 C   0  0  2  0  0  0  0  0  0  0  0  0
    0.0251    1.1607    0.8218 C   0  0  0  0  0  0  0  0  0  0  0  0
    3.0917   -0.8299    0.3436 C   0  0  1  0  0  0  0  0  0  0  0  0
   -3.9214    2.3519    1.5849 C   0  0  0  0  0  0  0  0  0  0  0  0
   -5.5783    2.9843   -0.2438 C   0  0  0  0  0  0  0  0  0  0  0  0
   -2.0494   -1.6728    0.9583 C   0  0  0  0  0  0  0  0  0  0  0  0
    5.2173    0.2291    0.2128 C   0  0  0  0  0  0  0  0  0  0  0  0
   -3.3136   -1.8398    0.1977 C   0  0  0  0  0  0  0  0  0  0  0  0
    6.4453   -0.2174   -0.2755 C   0  0  0  0  0  0  0  0  0  0  0  0
    4.8213    1.5497    0.0017 C   0  0  0  0  0  0  0  0  0  0  0  0
    7.2773    0.6567   -0.9749 C   0  0  0  0  0  0  0  0  0  0  0  0
    5.6531    2.4238   -0.6980 C   0  0  0  0  0  0  0  0  0  0  0  0
   -4.5194   -2.0110    0.8776 C   0  0  0  0  0  0  0  0  0  0  0  0
   -3.2954   -1.8232   -1.1970 C   0  0  0  0  0  0  0  0  0  0  0  0
    6.8782   -1.5920   -0.0658 C   0  0  0  0  0  0  0  0  0  0  0  0
    6.8812    1.9774   -1.1862 C   0  0  0  0  0  0  0  0  0  0  0  0
   -4.4832   -1.9778   -1.9118 C   0  0  0  0  0  0  0  0  0  0  0  0
   -5.7071   -2.1657    0.1627 C   0  0  0  0  0  0  0  0  0  0  0  0
   -5.6890   -2.1491   -1.2320 C   0  0  0  0  0  0  0  0  0  0  0  0
    7.7848   -2.2739   -1.0832 C   0  0  0  0  0  0  0  0  0  0  0  0
    3.9993    4.1025   -0.3783 C   0  0  0  0  0  0  0  0  0  0  0  0
    0.9169    0.0609   -0.7875 H   0  0  0  0  0  0  0  0  0  0  0  0
    0.2148   -1.3768    1.8212 H   0  0  0  0  0  0  0  0  0  0  0  0
    1.1342   -2.6686   -0.7795 H   0  0  0  0  0  0  0  0  0  0  0  0
   -3.3861    1.5521   -0.9625 H   0  0  0  0  0  0  0  0  0  0  0  0
   -1.3277    3.3298    0.4176 H   0  0  0  0  0  0  0  0  0  0  0  0
    2.7547   -2.3922    1.8122 H   0  0  0  0  0  0  0  0  0  0  0  0
   -0.2956    0.9790    1.8544 H   0  0  0  0  0  0  0  0  0  0  0  0
    0.6269    2.0784    0.8213 H   0  0  0  0  0  0  0  0  0  0  0  0
    3.1486   -0.7478   -0.7521 H   0  0  0  0  0  0  0  0  0  0  0  0
   -4.3818    1.3581    1.5659 H   0  0  0  0  0  0  0  0  0  0  0  0
   -4.2467    2.8820    2.4850 H   0  0  0  0  0  0  0  0  0  0  0  0
   -5.7088    3.5902   -1.1466 H   0  0  0  0  0  0  0  0  0  0  0  0
   -5.8189    1.9414   -0.4751 H   0  0  0  0  0  0  0  0  0  0  0  0
   -4.5929    4.8268    1.1711 H   0  0  0  0  0  0  0  0  0  0  0  0
    0.7827   -3.5815    1.8854 H   0  0  0  0  0  0  0  0  0  0  0  0
   -2.0073    2.9474   -2.1507 H   0  0  0  0  0  0  0  0  0  0  0  0
    3.4255   -3.0517   -0.8702 H   0  0  0  0  0  0  0  0  0  0  0  0
   -7.3859    3.3572    0.3581 H   0  0  0  0  0  0  0  0  0  0  0  0
    3.8732    1.8633    0.4199 H   0  0  0  0  0  0  0  0  0  0  0  0
    8.2454    0.3426   -1.3549 H   0  0  0  0  0  0  0  0  0  0  0  0
   -4.5403   -2.0232    1.9646 H   0  0  0  0  0  0  0  0  0  0  0  0
   -2.3718   -1.6897   -1.7539 H   0  0  0  0  0  0  0  0  0  0  0  0
    7.5346    2.6549   -1.7291 H   0  0  0  0  0  0  0  0  0  0  0  0
    7.5926   -3.3510   -1.0656 H   0  0  0  0  0  0  0  0  0  0  0  0
    7.5696   -1.9197   -2.0950 H   0  0  0  0  0  0  0  0  0  0  0  0
    8.8302   -2.0860   -0.8271 H   0  0  0  0  0  0  0  0  0  0  0  0
    3.8506    5.1549   -0.6417 H   0  0  0  0  0  0  0  0  0  0  0  0
    3.9814    4.0424    0.7152 H   0  0  0  0  0  0  0  0  0  0  0  0
    3.1801    3.5401   -0.8396 H   0  0  0  0  0  0  0  0  0  0  0  0
   -3.5347   -1.8297   -3.5700 H   0  0  0  0  0  0  0  0  0  0  0  0
   -6.6988   -2.3145    1.7942 H   0  0  0  0  0  0  0  0  0  0  0  0
   -7.5791   -2.4064   -1.2954 H   0  0  0  0  0  0  0  0  0  0  0  0
  1 17  1  0  0  0  0
  1 25  1  0  0  0  0
  2 22  1  0  0  0  0
  2 24  1  0  0  0  0
  3 22  1  0  0  0  0
  3 26  1  0  0  0  0
  4 18  1  0  0  0  0
  4 28  1  0  0  0  0
  5 19  1  0  0  0  0
  5 57  1  0  0  0  0
  6 20  1  0  0  0  0
  6 58  1  0  0  0  0
  7 21  1  0  0  0  0
  7 59  1  0  0  0  0
  8 25  1  0  0  0  0
  8 29  1  0  0  0  0
  9 23  1  0  0  0  0
  9 60  1  0  0  0  0
 10 27  1  0  0  0  0
 10 61  1  0  0  0  0
 11 28  2  0  0  0  0
 12 34  1  0  0  0  0
 12 43  1  0  0  0  0
 13 37  2  0  0  0  0
 14 39  1  0  0  0  0
 14 73  1  0  0  0  0
 15 40  1  0  0  0  0
 15 74  1  0  0  0  0
 16 41  1  0  0  0  0
 16 75  1  0  0  0  0
 17 18  1  0  0  0  0
 17 24  1  0  0  0  0
 17 44  1  0  0  0  0
 18 20  1  0  0  0  0
 18 45  1  0  0  0  0
 19 21  1  0  0  0  0
 19 26  1  0  0  0  0
 19 27  1  0  0  0  0
 20 23  1  0  0  0  0
 20 46  1  0  0  0  0
 21 22  1  0  0  0  0
 21 47  1  0  0  0  0
 22 48  1  0  0  0  0
 23 25  1  0  0  0  0
 23 49  1  0  0  0  0
 24 50  1  0  0  0  0
 24 51  1  0  0  0  0
 25 52  1  0  0  0  0
 26 53  1  0  0  0  0
 26 54  1  0  0  0  0
 27 55  1  0  0  0  0
 27 56  1  0  0  0  0
 28 30  1  0  0  0  0
 29 31  2  0  0  0  0
 29 32  1  0  0  0  0
 30 35  2  0  0  0  0
 30 36  1  0  0  0  0
 31 33  1  0  0  0  0
 31 37  1  0  0  0  0
 32 34  2  0  0  0  0
 32 62  1  0  0  0  0
 33 38  2  0  0  0  0
 33 63  1  0  0  0  0
 34 38  1  0  0  0  0
 35 40  1  0  0  0  0
 35 64  1  0  0  0  0
 36 39  2  0  0  0  0
 36 65  1  0  0  0  0
 37 42  1  0  0  0  0
 38 66  1  0  0  0  0
 39 41  1  0  0  0  0
 40 41  2  0  0  0  0
 42 67  1  0  0  0  0
 42 68  1  0  0  0  0
 42 69  1  0  0  0  0
 43 70  1  0  0  0  0
 43 71  1  0  0  0  0
 43 72  1  0  0  0  0
M  END
> <PUBCHEM_COMPOUND_CID>
10258205

> <PUBCHEM_CONFORMER_RMSD>
1.2

> <PUBCHEM_CONFORMER_DIVERSEORDER>
1
16
21
29
33
34
7
14
25
15
19
35
12
8
22
5
2
27
23
18
36
9
28
26
24
32
31
6
4
13
11
10
30
17
20
3

> <PUBCHEM_MMFF94_PARTIAL_CHARGES>
56
1 -0.56
10 -0.68
11 -0.57
12 -0.36
13 -0.57
14 -0.53
15 -0.53
16 -0.53
17 0.28
18 0.28
19 0.28
2 -0.56
20 0.28
21 0.28
22 0.56
23 0.28
24 0.28
25 0.56
26 0.28
27 0.28
28 0.63
29 0.08
3 -0.56
30 0.09
31 0.09
32 -0.15
33 -0.15
34 0.08
35 -0.15
36 -0.15
37 0.42
38 -0.15
39 0.08
4 -0.43
40 0.08
41 0.08
42 0.06
43 0.28
5 -0.68
57 0.4
58 0.4
59 0.4
6 -0.68
60 0.4
61 0.4
62 0.15
63 0.15
64 0.15
65 0.15
66 0.15
7 -0.68
73 0.45
74 0.45
75 0.45
8 -0.36
9 -0.68

> <PUBCHEM_EFFECTIVE_ROTOR_COUNT>
13.2

> <PUBCHEM_PHARMACOPHORE_FEATURES>
24
1 1 acceptor
1 10 acceptor
1 10 donor
1 11 acceptor
1 12 acceptor
1 13 acceptor
1 14 donor
1 15 donor
1 16 donor
1 2 acceptor
1 3 acceptor
1 5 acceptor
1 5 donor
1 6 acceptor
1 6 donor
1 7 acceptor
1 7 donor
1 8 acceptor
1 9 acceptor
1 9 donor
5 3 19 21 22 26 rings
6 1 17 18 20 23 25 rings
6 29 31 32 33 34 38 rings
6 30 35 36 39 40 41 rings

> <PUBCHEM_HEAVY_ATOM_COUNT>
43

> <PUBCHEM_ATOM_DEF_STEREO_COUNT>
8

> <PUBCHEM_ATOM_UDEF_STEREO_COUNT>
0

> <PUBCHEM_BOND_DEF_STEREO_COUNT>
0

> <PUBCHEM_BOND_UDEF_STEREO_COUNT>
0

> <PUBCHEM_ISOTOPIC_ATOM_COUNT>
0

> <PUBCHEM_COMPONENT_COUNT>
1

> <PUBCHEM_CACTVS_TAUTO_COUNT>
28

> <PUBCHEM_CONFORMER_ID>
009C871D00000001

> <PUBCHEM_MMFF94_ENERGY>
148.5174

> <PUBCHEM_FEATURE_SELFOVERLAP>
121.946

> <PUBCHEM_SHAPE_FINGERPRINT>
10050765 1 18337113345763441042
10190108 129 18337962306690149577
10190206 1 18187366571167803408
10454371 7 18341614802428704629
11101153 10 18337111258245128992
13617811 41 18121207933890451232
13911987 19 18262227945458481423
14068700 675 17131276882091613187
14118638 360 18410575128615416004
14340393 91 18341888632252663673
14790565 3 18336835264221675306
15064986 266 18261686921159508490
15082195 135 18337093610641195692
15276724 80 18341053033206102973
15289351 153 18335698408761355736
15705408 1 17478013492265932125
1577012 14 18334298648363577584
21236236 1 18410857650640649827
23576562 1 18335152977399085148
25223398 141 17703779337101362030
4573279 73 18412545444091965718
5171179 24 17987224711342157769
563151 97 18335421236107434507
6036956 94 17828779665541652580
6086070 43 18131633366407190104
6371009 1 18336816602847256464

> <PUBCHEM_SHAPE_MULTIPOLES>
791.01
21.1
5.68
1.61
18.04
4.44
-0.76
-1.1
-6.57
-4.18
-0.24
-2.26
-0.65
-3.21

> <PUBCHEM_SHAPE_SELFOVERLAP>
1696.73

> <PUBCHEM_SHAPE_VOLUME>
434

> <PUBCHEM_COORDINATE_TYPE>
2
5
10

$$$$
