21631105
  -OEChem-09132010383D

 63 68  0     1  0  0  0  0  0999 V2000
   -1.5040    2.1321    1.8188 O   0  0  0  0  0  0  0  0  0  0  0  0
   -2.4591    3.8621    0.5377 O   0  0  0  0  0  0  0  0  0  0  0  0
   -0.5885   -0.1909    0.0465 O   0  0  0  0  0  0  0  0  0  0  0  0
   -4.4846    3.5695   -0.6861 O   0  0  0  0  0  0  0  0  0  0  0  0
    1.2300    1.8194   -0.5244 O   0  0  0  0  0  0  0  0  0  0  0  0
   -1.5429   -2.2556    0.5659 O   0  0  0  0  0  0  0  0  0  0  0  0
    0.8992   -1.4236   -2.0212 O   0  0  0  0  0  0  0  0  0  0  0  0
    1.4002   -4.2735   -1.4671 O   0  0  0  0  0  0  0  0  0  0  0  0
    2.7228    2.4340   -2.1655 O   0  0  0  0  0  0  0  0  0  0  0  0
   -1.0662   -5.6225   -0.7942 O   0  0  0  0  0  0  0  0  0  0  0  0
   -3.8161   -3.4356    1.5641 O   0  0  0  0  0  0  0  0  0  0  0  0
    6.3456   -0.5591    2.1606 O   0  0  0  0  0  0  0  0  0  0  0  0
   -1.1231    2.2304   -0.4948 C   0  0  1  0  0  0  0  0  0  0  0  0
   -1.6066    0.8092   -0.1047 C   0  0  2  0  0  0  0  0  0  0  0  0
   -2.4644    2.3638   -1.2622 C   0  0  1  0  0  0  0  0  0  0  0  0
   -2.3437    1.1368    1.2044 C   0  0  2  0  0  0  0  0  0  0  0  0
   -2.4073    0.8209   -1.4366 C   0  0  0  0  0  0  0  0  0  0  0  0
   -3.3376    2.9495   -0.1435 C   0  0  1  0  0  0  0  0  0  0  0  0
   -1.2755    3.0758    0.7580 C   0  0  2  0  0  0  0  0  0  0  0  0
   -3.6856    1.8254    0.8593 C   0  0  0  0  0  0  0  0  0  0  0  0
    0.1606    2.4082   -1.2561 C   0  0  0  0  0  0  0  0  0  0  0  0
   -2.5288   -0.0513    2.1265 C   0  0  0  0  0  0  0  0  0  0  0  0
   -0.9143   -1.4862   -0.4565 C   0  0  2  0  0  0  0  0  0  0  0  0
    0.3832   -2.1553   -0.9097 C   0  0  1  0  0  0  0  0  0  0  0  0
    2.4621    1.9044   -1.0964 C   0  0  0  0  0  0  0  0  0  0  0  0
    0.1447   -3.6072   -1.3246 C   0  0  2  0  0  0  0  0  0  0  0  0
   -1.9184   -3.5592    0.1181 C   0  0  1  0  0  0  0  0  0  0  0  0
   -0.6716   -4.3568   -0.2714 C   0  0  1  0  0  0  0  0  0  0  0  0
    3.4850    1.2544   -0.2386 C   0  0  0  0  0  0  0  0  0  0  0  0
   -2.6873   -4.2311    1.2514 C   0  0  0  0  0  0  0  0  0  0  0  0
    4.8197    1.2287   -0.6430 C   0  0  0  0  0  0  0  0  0  0  0  0
    3.1115    0.6702    0.9717 C   0  0  0  0  0  0  0  0  0  0  0  0
    5.7809    0.6187    0.1629 C   0  0  0  0  0  0  0  0  0  0  0  0
    4.0727    0.0601    1.7776 C   0  0  0  0  0  0  0  0  0  0  0  0
    5.4074    0.0343    1.3732 C   0  0  0  0  0  0  0  0  0  0  0  0
   -2.4264    2.9568   -2.1809 H   0  0  0  0  0  0  0  0  0  0  0  0
   -1.8508    0.5110   -2.3297 H   0  0  0  0  0  0  0  0  0  0  0  0
   -3.3710    0.3044   -1.4396 H   0  0  0  0  0  0  0  0  0  0  0  0
   -0.4299    3.7237    1.0038 H   0  0  0  0  0  0  0  0  0  0  0  0
   -4.4122    1.1252    0.4320 H   0  0  0  0  0  0  0  0  0  0  0  0
   -4.1349    2.2632    1.7597 H   0  0  0  0  0  0  0  0  0  0  0  0
    0.3663    3.4729   -1.4205 H   0  0  0  0  0  0  0  0  0  0  0  0
    0.1025    1.9204   -2.2364 H   0  0  0  0  0  0  0  0  0  0  0  0
   -3.1778   -0.8071    1.6793 H   0  0  0  0  0  0  0  0  0  0  0  0
   -2.9963    0.2719    3.0643 H   0  0  0  0  0  0  0  0  0  0  0  0
   -1.5720   -0.4972    2.4153 H   0  0  0  0  0  0  0  0  0  0  0  0
   -5.1816    3.5589   -0.0090 H   0  0  0  0  0  0  0  0  0  0  0  0
   -1.5928   -1.4188   -1.3118 H   0  0  0  0  0  0  0  0  0  0  0  0
    1.1393   -2.1012   -0.1173 H   0  0  0  0  0  0  0  0  0  0  0  0
   -0.3414   -3.6593   -2.3059 H   0  0  0  0  0  0  0  0  0  0  0  0
   -2.6011   -3.4517   -0.7359 H   0  0  0  0  0  0  0  0  0  0  0  0
   -0.0484   -4.5471    0.6110 H   0  0  0  0  0  0  0  0  0  0  0  0
    0.2366   -1.4478   -2.7325 H   0  0  0  0  0  0  0  0  0  0  0  0
   -2.0697   -4.3018    2.1530 H   0  0  0  0  0  0  0  0  0  0  0  0
   -3.0295   -5.2308    0.9677 H   0  0  0  0  0  0  0  0  0  0  0  0
    1.8657   -4.2271   -0.6146 H   0  0  0  0  0  0  0  0  0  0  0  0
   -1.6311   -5.4644   -1.5698 H   0  0  0  0  0  0  0  0  0  0  0  0
    5.1310    1.6783   -1.5820 H   0  0  0  0  0  0  0  0  0  0  0  0
    2.0843    0.6668    1.3252 H   0  0  0  0  0  0  0  0  0  0  0  0
   -4.2857   -3.8769    2.2923 H   0  0  0  0  0  0  0  0  0  0  0  0
    6.8175    0.6056   -0.1632 H   0  0  0  0  0  0  0  0  0  0  0  0
    3.7761   -0.3935    2.7194 H   0  0  0  0  0  0  0  0  0  0  0  0
    7.2134   -0.4841    1.7278 H   0  0  0  0  0  0  0  0  0  0  0  0
  1 16  1  0  0  0  0
  1 19  1  0  0  0  0
  2 18  1  0  0  0  0
  2 19  1  0  0  0  0
  3 14  1  0  0  0  0
  3 23  1  0  0  0  0
  4 18  1  0  0  0  0
  4 47  1  0  0  0  0
  5 21  1  0  0  0  0
  5 25  1  0  0  0  0
  6 23  1  0  0  0  0
  6 27  1  0  0  0  0
  7 24  1  0  0  0  0
  7 53  1  0  0  0  0
  8 26  1  0  0  0  0
  8 56  1  0  0  0  0
  9 25  2  0  0  0  0
 10 28  1  0  0  0  0
 10 57  1  0  0  0  0
 11 30  1  0  0  0  0
 11 60  1  0  0  0  0
 12 35  1  0  0  0  0
 12 63  1  0  0  0  0
 13 14  1  0  0  0  0
 13 15  1  0  0  0  0
 13 19  1  0  0  0  0
 13 21  1  0  0  0  0
 14 16  1  0  0  0  0
 14 17  1  0  0  0  0
 15 17  1  0  0  0  0
 15 18  1  0  0  0  0
 15 36  1  0  0  0  0
 16 20  1  0  0  0  0
 16 22  1  0  0  0  0
 17 37  1  0  0  0  0
 17 38  1  0  0  0  0
 18 20  1  0  0  0  0
 19 39  1  0  0  0  0
 20 40  1  0  0  0  0
 20 41  1  0  0  0  0
 21 42  1  0  0  0  0
 21 43  1  0  0  0  0
 22 44  1  0  0  0  0
 22 45  1  0  0  0  0
 22 46  1  0  0  0  0
 23 24  1  0  0  0  0
 23 48  1  0  0  0  0
 24 26  1  0  0  0  0
 24 49  1  0  0  0  0
 25 29  1  0  0  0  0
 26 28  1  0  0  0  0
 26 50  1  0  0  0  0
 27 28  1  0  0  0  0
 27 30  1  0  0  0  0
 27 51  1  0  0  0  0
 28 52  1  0  0  0  0
 29 31  2  0  0  0  0
 29 32  1  0  0  0  0
 30 54  1  0  0  0  0
 30 55  1  0  0  0  0
 31 33  1  0  0  0  0
 31 58  1  0  0  0  0
 32 34  2  0  0  0  0
 32 59  1  0  0  0  0
 33 35  2  0  0  0  0
 33 61  1  0  0  0  0
 34 35  1  0  0  0  0
 34 62  1  0  0  0  0
M  END
> <PUBCHEM_COMPOUND_CID>
21631105

> <PUBCHEM_CONFORMER_RMSD>
1

> <PUBCHEM_CONFORMER_DIVERSEORDER>
1
2
41
22
40
14
51
11
25
5
12
27
45
52
34
13
50
35
8
31
18
42
48
36
6
17
9
24
38
28
21
32
23
43
44
20
16
19
3
49
46
15
7
26
39
33
29
10
30
37
4
47

> <PUBCHEM_MMFF94_PARTIAL_CHARGES>
40
1 -0.56
10 -0.68
11 -0.68
12 -0.53
14 0.26
16 0.28
18 0.56
19 0.56
2 -0.56
21 0.28
23 0.56
24 0.28
25 0.63
26 0.28
27 0.28
28 0.28
29 0.09
3 -0.54
30 0.28
31 -0.15
32 -0.15
33 -0.15
34 -0.15
35 0.08
4 -0.68
47 0.4
5 -0.43
53 0.4
56 0.4
57 0.4
58 0.15
59 0.15
6 -0.56
60 0.4
61 0.15
62 0.15
63 0.45
7 -0.68
8 -0.68
9 -0.57

> <PUBCHEM_EFFECTIVE_ROTOR_COUNT>
9

> <PUBCHEM_PHARMACOPHORE_FEATURES>
19
1 1 acceptor
1 10 acceptor
1 10 donor
1 11 acceptor
1 11 donor
1 12 donor
1 2 acceptor
1 3 acceptor
1 4 acceptor
1 4 donor
1 6 acceptor
1 7 acceptor
1 7 donor
1 8 acceptor
1 8 donor
1 9 acceptor
10 1 2 13 14 15 16 17 18 19 20 rings
6 29 31 32 33 34 35 rings
6 6 23 24 26 27 28 rings

> <PUBCHEM_HEAVY_ATOM_COUNT>
35

> <PUBCHEM_ATOM_DEF_STEREO_COUNT>
11

> <PUBCHEM_ATOM_UDEF_STEREO_COUNT>
0

> <PUBCHEM_BOND_DEF_STEREO_COUNT>
0

> <PUBCHEM_BOND_UDEF_STEREO_COUNT>
0

> <PUBCHEM_ISOTOPIC_ATOM_COUNT>
0

> <PUBCHEM_COMPONENT_COUNT>
1

> <PUBCHEM_CACTVS_TAUTO_COUNT>
3

> <PUBCHEM_CONFORMER_ID>
014A108100000001

> <PUBCHEM_MMFF94_ENERGY>
109.7124

> <PUBCHEM_FEATURE_SELFOVERLAP>
96.571

> <PUBCHEM_SHAPE_FINGERPRINT>
10305334 12 17749665165215383650
10622 236 17969485173986894922
11421498 54 17542789055132127612
12160290 23 17915753156663717388
12422481 6 18197244592048131211
12553582 1 17691974082295692534
12788726 201 18118974834738386270
13004483 165 18050009092808794163
13165053 137 17828734306128367147
133893 2 17552069602557454825
13692114 37 18412255165086445169
14844126 61 18337943618928846082
15064986 96 18048595915471825992
15230672 131 18339089165040084654
15403338 16 16734380504688416192
15439362 3 17981041917172657768
16728300 4 17894905192172322139
20775530 9 17905326582708544382
21033648 29 18271229527122872744
21421861 104 16827285243094873977
22223350 30 18194983858834637510
23559900 14 17684953305547395565
23598288 3 18334852878942486074
3027735 51 18343012307498309711
3886686 26 18190175681643935706
4017518 198 18268423539194206982
4409770 3 18337382859451099327
463206 1 17253713188771702914
508706 21 18341902891797391926
5171179 24 16823891539942131628
6669772 16 18121495761840918597
79837 15 18411420574776788000
9981440 41 18339917104629440395

> <PUBCHEM_SHAPE_MULTIPOLES>
649.85
9.05
6.8
1.9
16.2
8.66
-0.28
-3.41
-4.41
-8.11
1.52
0.64
0.18
0.17

> <PUBCHEM_SHAPE_SELFOVERLAP>
1443.933

> <PUBCHEM_SHAPE_VOLUME>
348.6

> <PUBCHEM_COORDINATE_TYPE>
2
5
10

$$$$
