5323537
  -OEChem-09132010193D

 77 81  0     1  0  0  0  0  0999 V2000
    3.6076   -1.9519   -0.0399 O   0  0  0  0  0  0  0  0  0  0  0  0
   -5.3762   -0.5501    0.5845 O   0  0  0  0  0  0  0  0  0  0  0  0
    2.9062   -0.3489    1.5037 O   0  0  0  0  0  0  0  0  0  0  0  0
   -4.2638   -1.1229   -1.3848 O   0  0  0  0  0  0  0  0  0  0  0  0
    7.5373   -1.4729    1.0534 O   0  0  0  0  0  0  0  0  0  0  0  0
    6.8883   -2.7769   -1.4433 O   0  0  0  0  0  0  0  0  0  0  0  0
   -8.8155    0.3565   -1.4690 O   0  0  0  0  0  0  0  0  0  0  0  0
   -8.4666    1.3027    1.2401 O   0  0  0  0  0  0  0  0  0  0  0  0
    5.5590    0.6223    1.6678 O   0  0  0  0  0  0  0  0  0  0  0  0
   -6.2266    0.2702   -2.8730 O   0  0  0  0  0  0  0  0  0  0  0  0
    2.7771   -3.4267   -2.2057 O   0  0  0  0  0  0  0  0  0  0  0  0
   -4.9846   -0.0139    3.2520 O   0  0  0  0  0  0  0  0  0  0  0  0
   -0.1412    0.8961   -0.1551 O   0  0  0  0  0  0  0  0  0  0  0  0
    1.2747   -2.5986    1.3896 O   0  0  0  0  0  0  0  0  0  0  0  0
   -0.9582   -3.7957    0.7431 O   0  0  0  0  0  0  0  0  0  0  0  0
    3.0922    4.5162   -2.0693 O   0  0  0  0  0  0  0  0  0  0  0  0
    3.8961    5.7074    0.3091 O   0  0  0  0  0  0  0  0  0  0  0  0
    6.3580   -1.1958    0.2967 C   0  0  1  0  0  0  0  0  0  0  0  0
    5.9424   -2.4811   -0.4192 C   0  0  1  0  0  0  0  0  0  0  0  0
   -7.5426    0.6341   -0.8831 C   0  0  1  0  0  0  0  0  0  0  0  0
   -7.6342    0.3310    0.6125 C   0  0  1  0  0  0  0  0  0  0  0  0
    5.2555   -0.7034    1.2344 C   0  0  2  0  0  0  0  0  0  0  0  0
    4.5526   -2.3309   -1.0422 C   0  0  1  0  0  0  0  0  0  0  0  0
   -6.4735   -0.2260   -1.5575 C   0  0  2  0  0  0  0  0  0  0  0  0
   -6.2470    0.3602    1.2585 C   0  0  1  0  0  0  0  0  0  0  0  0
    3.8980   -0.6784    0.5318 C   0  0  1  0  0  0  0  0  0  0  0  0
   -5.1589   -0.1914   -0.7782 C   0  0  1  0  0  0  0  0  0  0  0  0
    4.0670   -3.6377   -1.6613 C   0  0  0  0  0  0  0  0  0  0  0  0
   -6.2985   -0.0537    2.7258 C   0  0  0  0  0  0  0  0  0  0  0  0
    1.6534   -0.3065    0.9309 C   0  0  0  0  0  0  0  0  0  0  0  0
   -3.0212   -1.2328   -0.8233 C   0  0  0  0  0  0  0  0  0  0  0  0
   -0.4912   -1.4583    0.3205 C   0  0  0  0  0  0  0  0  0  0  0  0
    0.8482   -1.5515    0.9215 C   0  0  0  0  0  0  0  0  0  0  0  0
    1.1267    0.8112    0.3984 C   0  0  0  0  0  0  0  0  0  0  0  0
   -0.9173   -0.2333   -0.1882 C   0  0  0  0  0  0  0  0  0  0  0  0
   -2.1842   -0.1185   -0.7611 C   0  0  0  0  0  0  0  0  0  0  0  0
   -2.5929   -2.4592   -0.3137 C   0  0  0  0  0  0  0  0  0  0  0  0
   -1.3265   -2.5764    0.2602 C   0  0  0  0  0  0  0  0  0  0  0  0
    1.8525    2.0936    0.3714 C   0  0  0  0  0  0  0  0  0  0  0  0
    2.1345    2.7101   -0.8475 C   0  0  0  0  0  0  0  0  0  0  0  0
    2.2574    2.6909    1.5652 C   0  0  0  0  0  0  0  0  0  0  0  0
    2.8212    3.9240   -0.8730 C   0  0  0  0  0  0  0  0  0  0  0  0
    2.9443    3.9047    1.5397 C   0  0  0  0  0  0  0  0  0  0  0  0
    3.2261    4.5213    0.3207 C   0  0  0  0  0  0  0  0  0  0  0  0
    2.6441    3.8411   -3.2431 C   0  0  0  0  0  0  0  0  0  0  0  0
    6.6342   -0.4182   -0.4251 H   0  0  0  0  0  0  0  0  0  0  0  0
    5.9551   -3.3182    0.2895 H   0  0  0  0  0  0  0  0  0  0  0  0
   -7.3536    1.7002   -1.0549 H   0  0  0  0  0  0  0  0  0  0  0  0
   -8.1049   -0.6484    0.7619 H   0  0  0  0  0  0  0  0  0  0  0  0
    5.2098   -1.3277    2.1346 H   0  0  0  0  0  0  0  0  0  0  0  0
    4.5532   -1.5632   -1.8281 H   0  0  0  0  0  0  0  0  0  0  0  0
   -6.8256   -1.2583   -1.6699 H   0  0  0  0  0  0  0  0  0  0  0  0
   -5.8081    1.3659    1.2055 H   0  0  0  0  0  0  0  0  0  0  0  0
    3.8993    0.0885   -0.2553 H   0  0  0  0  0  0  0  0  0  0  0  0
   -4.7263    0.8161   -0.8336 H   0  0  0  0  0  0  0  0  0  0  0  0
    3.9833   -4.4216   -0.9012 H   0  0  0  0  0  0  0  0  0  0  0  0
    4.7342   -3.9768   -2.4594 H   0  0  0  0  0  0  0  0  0  0  0  0
   -6.6677   -1.0796    2.8288 H   0  0  0  0  0  0  0  0  0  0  0  0
   -6.9320    0.6194    3.3112 H   0  0  0  0  0  0  0  0  0  0  0  0
    7.3190   -2.1494    1.7171 H   0  0  0  0  0  0  0  0  0  0  0  0
    6.8747   -2.0463   -2.0849 H   0  0  0  0  0  0  0  0  0  0  0  0
   -9.0044   -0.5897   -1.3479 H   0  0  0  0  0  0  0  0  0  0  0  0
   -8.0505    2.1740    1.1251 H   0  0  0  0  0  0  0  0  0  0  0  0
    5.5890    1.1968    0.8836 H   0  0  0  0  0  0  0  0  0  0  0  0
   -5.9125    1.1873   -2.7955 H   0  0  0  0  0  0  0  0  0  0  0  0
   -2.5001    0.8372   -1.1707 H   0  0  0  0  0  0  0  0  0  0  0  0
    2.4848   -4.2718   -2.5877 H   0  0  0  0  0  0  0  0  0  0  0  0
   -5.0402   -0.2852    4.1840 H   0  0  0  0  0  0  0  0  0  0  0  0
   -3.2499   -3.3241   -0.3642 H   0  0  0  0  0  0  0  0  0  0  0  0
    1.8004    2.1992   -1.7450 H   0  0  0  0  0  0  0  0  0  0  0  0
    2.0411    2.2306    2.5263 H   0  0  0  0  0  0  0  0  0  0  0  0
   -0.0610   -3.7603    1.1085 H   0  0  0  0  0  0  0  0  0  0  0  0
    3.2527    4.3598    2.4772 H   0  0  0  0  0  0  0  0  0  0  0  0
    4.0947    5.9679    1.2249 H   0  0  0  0  0  0  0  0  0  0  0  0
    3.1343    2.8688   -3.3616 H   0  0  0  0  0  0  0  0  0  0  0  0
    1.5517    3.7651   -3.2734 H   0  0  0  0  0  0  0  0  0  0  0  0
    2.9431    4.4533   -4.1004 H   0  0  0  0  0  0  0  0  0  0  0  0
  1 23  1  0  0  0  0
  1 26  1  0  0  0  0
  2 25  1  0  0  0  0
  2 27  1  0  0  0  0
  3 26  1  0  0  0  0
  3 30  1  0  0  0  0
  4 27  1  0  0  0  0
  4 31  1  0  0  0  0
  5 18  1  0  0  0  0
  5 60  1  0  0  0  0
  6 19  1  0  0  0  0
  6 61  1  0  0  0  0
  7 20  1  0  0  0  0
  7 62  1  0  0  0  0
  8 21  1  0  0  0  0
  8 63  1  0  0  0  0
  9 22  1  0  0  0  0
  9 64  1  0  0  0  0
 10 24  1  0  0  0  0
 10 65  1  0  0  0  0
 11 28  1  0  0  0  0
 11 67  1  0  0  0  0
 12 29  1  0  0  0  0
 12 68  1  0  0  0  0
 13 34  1  0  0  0  0
 13 35  1  0  0  0  0
 14 33  2  0  0  0  0
 15 38  1  0  0  0  0
 15 72  1  0  0  0  0
 16 42  1  0  0  0  0
 16 45  1  0  0  0  0
 17 44  1  0  0  0  0
 17 74  1  0  0  0  0
 18 19  1  0  0  0  0
 18 22  1  0  0  0  0
 18 46  1  0  0  0  0
 19 23  1  0  0  0  0
 19 47  1  0  0  0  0
 20 21  1  0  0  0  0
 20 24  1  0  0  0  0
 20 48  1  0  0  0  0
 21 25  1  0  0  0  0
 21 49  1  0  0  0  0
 22 26  1  0  0  0  0
 22 50  1  0  0  0  0
 23 28  1  0  0  0  0
 23 51  1  0  0  0  0
 24 27  1  0  0  0  0
 24 52  1  0  0  0  0
 25 29  1  0  0  0  0
 25 53  1  0  0  0  0
 26 54  1  0  0  0  0
 27 55  1  0  0  0  0
 28 56  1  0  0  0  0
 28 57  1  0  0  0  0
 29 58  1  0  0  0  0
 29 59  1  0  0  0  0
 30 33  1  0  0  0  0
 30 34  2  0  0  0  0
 31 36  1  0  0  0  0
 31 37  2  0  0  0  0
 32 33  1  0  0  0  0
 32 35  1  0  0  0  0
 32 38  2  0  0  0  0
 34 39  1  0  0  0  0
 35 36  2  0  0  0  0
 36 66  1  0  0  0  0
 37 38  1  0  0  0  0
 37 69  1  0  0  0  0
 39 40  2  0  0  0  0
 39 41  1  0  0  0  0
 40 42  1  0  0  0  0
 40 70  1  0  0  0  0
 41 43  2  0  0  0  0
 41 71  1  0  0  0  0
 42 44  2  0  0  0  0
 43 44  1  0  0  0  0
 43 73  1  0  0  0  0
 45 75  1  0  0  0  0
 45 76  1  0  0  0  0
 45 77  1  0  0  0  0
M  END
> <PUBCHEM_COMPOUND_CID>
5323537

> <PUBCHEM_CONFORMER_RMSD>
1.2

> <PUBCHEM_CONFORMER_DIVERSEORDER>
6
44
35
30
45
12
33
37
28
29
51
2
53
22
42
52
56
36
15
10
19
55
27
16
18
9
26
40
54
47
3
24
46
38
23
48
1
13
50
20
32
41
21
14
34
49
11
43
8
39
25
4
31
5
7
17

> <PUBCHEM_MMFF94_PARTIAL_CHARGES>
60
1 -0.56
10 -0.68
11 -0.68
12 -0.68
13 -0.16
14 -0.57
15 -0.53
16 -0.36
17 -0.53
18 0.28
19 0.28
2 -0.56
20 0.28
21 0.28
22 0.28
23 0.28
24 0.28
25 0.28
26 0.56
27 0.56
28 0.28
29 0.28
3 -0.36
30 0.09
31 0.08
32 0.09
33 0.47
34 0.05
35 0.08
36 -0.15
37 -0.15
38 0.08
39 0.03
4 -0.36
40 -0.15
41 -0.15
42 0.08
43 -0.15
44 0.08
45 0.28
5 -0.68
6 -0.68
60 0.4
61 0.4
62 0.4
63 0.4
64 0.4
65 0.4
66 0.15
67 0.4
68 0.4
69 0.15
7 -0.68
70 0.15
71 0.15
72 0.45
73 0.15
74 0.45
8 -0.68
9 -0.68

> <PUBCHEM_EFFECTIVE_ROTOR_COUNT>
10.4

> <PUBCHEM_PHARMACOPHORE_FEATURES>
30
1 1 acceptor
1 10 acceptor
1 10 donor
1 11 acceptor
1 11 donor
1 12 acceptor
1 12 donor
1 13 acceptor
1 14 acceptor
1 15 donor
1 16 acceptor
1 17 donor
1 2 acceptor
1 3 acceptor
1 4 acceptor
1 5 acceptor
1 5 donor
1 6 acceptor
1 6 donor
1 7 acceptor
1 7 donor
1 8 acceptor
1 8 donor
1 9 acceptor
1 9 donor
6 1 18 19 22 23 26 rings
6 13 30 32 33 34 35 rings
6 2 20 21 24 25 27 rings
6 31 32 35 36 37 38 rings
6 39 40 41 42 43 44 rings

> <PUBCHEM_HEAVY_ATOM_COUNT>
45

> <PUBCHEM_ATOM_DEF_STEREO_COUNT>
10

> <PUBCHEM_ATOM_UDEF_STEREO_COUNT>
0

> <PUBCHEM_BOND_DEF_STEREO_COUNT>
0

> <PUBCHEM_BOND_UDEF_STEREO_COUNT>
0

> <PUBCHEM_ISOTOPIC_ATOM_COUNT>
0

> <PUBCHEM_COMPONENT_COUNT>
1

> <PUBCHEM_CACTVS_TAUTO_COUNT>
25

> <PUBCHEM_CONFORMER_ID>
00513B1100000006

> <PUBCHEM_MMFF94_ENERGY>
158.7645

> <PUBCHEM_FEATURE_SELFOVERLAP>
152.451

> <PUBCHEM_SHAPE_FINGERPRINT>
10050765 1 18192705876567830859
10079526 769 18130801056894146785
10554248 39 18341320193716219005
10721379 63 18270132321987102892
10816530 90 18261393377699144964
11062273 29 18195267692006753156
11475781 23 14333140641734643921
11607047 403 10735879452588128532
12741549 16 17631998781802918664
13383668 251 18259983808683447679
13540713 4 18116718606608139171
140371 6 18342462547637452018
15021287 119 18271534104653834401
15183329 4 17703222923809284883
15328829 1 17775286028616944355
15439362 3 18192988451704846904
15475509 8 18343022142804858946
18393751 57 8862358909331577150
19309040 13 18125159591570641101
22311459 1 18336820914351440907
23559900 14 18270952548644117282
23569943 247 17984419633599548379
24771750 20 18191596452413596422
249057 25 17704356580916888889
249057 3 18411695495786788326
3178227 256 18187366510664007867
394071 54 18412821387024419458
397830 11 17386570301539953929
4066623 53 18194678177775538174
4144715 1 18264771154476487515
44575985 19 18411983581097852386
6609424 69 17750211695440949220
9962374 69 18341038692800905759

> <PUBCHEM_SHAPE_MULTIPOLES>
826.3
20.91
5.73
2.36
36.3
6.6
0.42
-2.85
-0.01
-13.24
2.1
1.65
0.96
0.35

> <PUBCHEM_SHAPE_SELFOVERLAP>
1794.493

> <PUBCHEM_SHAPE_VOLUME>
443.8

> <PUBCHEM_COORDINATE_TYPE>
2
5
10

$$$$
