21631102
  -OEChem-09132011463D

 79 85  0     1  0  0  0  0  0999 V2000
    2.9250    1.3910   -1.3280 O   0  0  0  0  0  0  0  0  0  0  0  0
    1.3969    3.1760   -1.4852 O   0  0  0  0  0  0  0  0  0  0  0  0
    3.2217    0.4305    1.5642 O   0  0  0  0  0  0  0  0  0  0  0  0
    1.8115    5.2979   -0.4792 O   0  0  0  0  0  0  0  0  0  0  0  0
   -0.9385    1.4972    0.6135 O   0  0  0  0  0  0  0  0  0  0  0  0
    2.4810   -0.8453   -0.2435 O   0  0  0  0  0  0  0  0  0  0  0  0
    5.1020   -1.5893    2.1911 O   0  0  0  0  0  0  0  0  0  0  0  0
    4.2073   -4.2453    1.2821 O   0  0  0  0  0  0  0  0  0  0  0  0
   -2.0256   -0.2024    1.7221 O   0  0  0  0  0  0  0  0  0  0  0  0
    3.4267   -4.1531   -1.4997 O   0  0  0  0  0  0  0  0  0  0  0  0
    0.4452   -2.3117   -1.4247 O   0  0  0  0  0  0  0  0  0  0  0  0
   -6.7409    3.3410   -0.6498 O   0  0  0  0  0  0  0  0  0  0  0  0
   -0.9172   -1.1514   -2.8729 O   0  0  0  0  0  0  0  0  0  0  0  0
   -4.9626   -3.5993    1.3768 O   0  0  0  0  0  0  0  0  0  0  0  0
    1.4222    1.8108    0.4249 C   0  0  1  0  0  0  0  0  0  0  0  0
    2.8628    1.6949    0.9881 C   0  0  2  0  0  0  0  0  0  0  0  0
    1.4860    3.3005    0.8517 C   0  0  1  0  0  0  0  0  0  0  0  0
    3.6642    2.0417   -0.2775 C   0  0  2  0  0  0  0  0  0  0  0  0
    2.4708    2.8406    1.9622 C   0  0  0  0  0  0  0  0  0  0  0  0
    2.0570    3.9078   -0.4377 C   0  0  1  0  0  0  0  0  0  0  0  0
    1.5692    1.8051   -1.0870 C   0  0  2  0  0  0  0  0  0  0  0  0
    3.5620    3.5653   -0.5276 C   0  0  0  0  0  0  0  0  0  0  0  0
    0.3228    0.9505    0.9820 C   0  0  0  0  0  0  0  0  0  0  0  0
    5.1005    1.5594   -0.2545 C   0  0  0  0  0  0  0  0  0  0  0  0
    3.5749   -0.5942    0.6357 C   0  0  2  0  0  0  0  0  0  0  0  0
    3.9219   -1.8520    1.4322 C   0  0  1  0  0  0  0  0  0  0  0  0
   -2.0337    0.8182    1.0515 C   0  0  0  0  0  0  0  0  0  0  0  0
    4.1677   -3.0451    0.5085 C   0  0  2  0  0  0  0  0  0  0  0  0
    2.7795   -1.8472   -1.2173 C   0  0  1  0  0  0  0  0  0  0  0  0
    3.0492   -3.1850   -0.5243 C   0  0  1  0  0  0  0  0  0  0  0  0
   -3.2806    1.4869    0.6011 C   0  0  0  0  0  0  0  0  0  0  0  0
    1.5895   -1.9334   -2.1679 C   0  0  0  0  0  0  0  0  0  0  0  0
   -4.4131    1.3825    1.3824 C   0  0  0  0  0  0  0  0  0  0  0  0
   -3.2682    2.1920   -0.5850 C   0  0  0  0  0  0  0  0  0  0  0  0
   -5.5845    2.0104    0.9590 C   0  0  0  0  0  0  0  0  0  0  0  0
   -4.4395    2.8201   -1.0084 C   0  0  0  0  0  0  0  0  0  0  0  0
   -5.5978    2.7294   -0.2363 C   0  0  0  0  0  0  0  0  0  0  0  0
   -0.7534   -1.8519   -1.8860 C   0  0  0  0  0  0  0  0  0  0  0  0
   -1.8685   -2.3151   -1.0221 C   0  0  0  0  0  0  0  0  0  0  0  0
   -3.1583   -1.9419   -1.3402 C   0  0  0  0  0  0  0  0  0  0  0  0
   -1.5805   -3.1046    0.0725 C   0  0  0  0  0  0  0  0  0  0  0  0
   -4.2057   -2.3769   -0.5282 C   0  0  0  0  0  0  0  0  0  0  0  0
   -2.6280   -3.5397    0.8845 C   0  0  0  0  0  0  0  0  0  0  0  0
   -3.9407   -3.1759    0.5841 C   0  0  0  0  0  0  0  0  0  0  0  0
   -6.2800   -3.1891    1.0127 C   0  0  0  0  0  0  0  0  0  0  0  0
    0.5435    3.7329    1.2008 H   0  0  0  0  0  0  0  0  0  0  0  0
    3.2600    3.5481    2.2299 H   0  0  0  0  0  0  0  0  0  0  0  0
    1.9900    2.5059    2.8889 H   0  0  0  0  0  0  0  0  0  0  0  0
    0.8700    1.1671   -1.6327 H   0  0  0  0  0  0  0  0  0  0  0  0
    3.9335    3.8183   -1.5286 H   0  0  0  0  0  0  0  0  0  0  0  0
    4.1409    4.1459    0.1996 H   0  0  0  0  0  0  0  0  0  0  0  0
    0.3767    0.9111    2.0765 H   0  0  0  0  0  0  0  0  0  0  0  0
    0.3813   -0.0752    0.6086 H   0  0  0  0  0  0  0  0  0  0  0  0
    5.3350    0.8386   -1.0462 H   0  0  0  0  0  0  0  0  0  0  0  0
    5.7625    2.4044   -0.4933 H   0  0  0  0  0  0  0  0  0  0  0  0
    5.4604    1.2404    0.7295 H   0  0  0  0  0  0  0  0  0  0  0  0
    0.9480    5.4721   -0.0694 H   0  0  0  0  0  0  0  0  0  0  0  0
    4.4697   -0.4257    0.0634 H   0  0  0  0  0  0  0  0  0  0  0  0
    3.1229   -2.0818    2.1482 H   0  0  0  0  0  0  0  0  0  0  0  0
    5.1473   -2.9574    0.0223 H   0  0  0  0  0  0  0  0  0  0  0  0
    3.6521   -1.5346   -1.8062 H   0  0  0  0  0  0  0  0  0  0  0  0
    2.1502   -3.5611   -0.0218 H   0  0  0  0  0  0  0  0  0  0  0  0
    5.3243   -2.4041    2.6731 H   0  0  0  0  0  0  0  0  0  0  0  0
    1.4480   -0.9557   -2.6421 H   0  0  0  0  0  0  0  0  0  0  0  0
    1.7654   -2.6778   -2.9515 H   0  0  0  0  0  0  0  0  0  0  0  0
    4.3523   -4.9838    0.6662 H   0  0  0  0  0  0  0  0  0  0  0  0
    4.2276   -3.8317   -1.9478 H   0  0  0  0  0  0  0  0  0  0  0  0
   -4.4146    0.8271    2.3156 H   0  0  0  0  0  0  0  0  0  0  0  0
   -2.3839    2.2654   -1.2109 H   0  0  0  0  0  0  0  0  0  0  0  0
   -6.4837    1.9359    1.5646 H   0  0  0  0  0  0  0  0  0  0  0  0
   -4.4377    3.3741   -1.9433 H   0  0  0  0  0  0  0  0  0  0  0  0
   -6.5695    3.7912   -1.4947 H   0  0  0  0  0  0  0  0  0  0  0  0
   -3.3811   -1.3186   -2.2010 H   0  0  0  0  0  0  0  0  0  0  0  0
   -0.5746   -3.4087    0.3433 H   0  0  0  0  0  0  0  0  0  0  0  0
   -5.2004   -2.0555   -0.8178 H   0  0  0  0  0  0  0  0  0  0  0  0
   -2.4156   -4.1607    1.7505 H   0  0  0  0  0  0  0  0  0  0  0  0
   -6.9669   -3.6152    1.7512 H   0  0  0  0  0  0  0  0  0  0  0  0
   -6.3906   -2.1005    1.0638 H   0  0  0  0  0  0  0  0  0  0  0  0
   -6.5709   -3.5907    0.0361 H   0  0  0  0  0  0  0  0  0  0  0  0
  1 18  1  0  0  0  0
  1 21  1  0  0  0  0
  2 20  1  0  0  0  0
  2 21  1  0  0  0  0
  3 16  1  0  0  0  0
  3 25  1  0  0  0  0
  4 20  1  0  0  0  0
  4 57  1  0  0  0  0
  5 23  1  0  0  0  0
  5 27  1  0  0  0  0
  6 25  1  0  0  0  0
  6 29  1  0  0  0  0
  7 26  1  0  0  0  0
  7 63  1  0  0  0  0
  8 28  1  0  0  0  0
  8 66  1  0  0  0  0
  9 27  2  0  0  0  0
 10 30  1  0  0  0  0
 10 67  1  0  0  0  0
 11 32  1  0  0  0  0
 11 38  1  0  0  0  0
 12 37  1  0  0  0  0
 12 72  1  0  0  0  0
 13 38  2  0  0  0  0
 14 44  1  0  0  0  0
 14 45  1  0  0  0  0
 15 16  1  0  0  0  0
 15 17  1  0  0  0  0
 15 21  1  0  0  0  0
 15 23  1  0  0  0  0
 16 18  1  0  0  0  0
 16 19  1  0  0  0  0
 17 19  1  0  0  0  0
 17 20  1  0  0  0  0
 17 46  1  0  0  0  0
 18 22  1  0  0  0  0
 18 24  1  0  0  0  0
 19 47  1  0  0  0  0
 19 48  1  0  0  0  0
 20 22  1  0  0  0  0
 21 49  1  0  0  0  0
 22 50  1  0  0  0  0
 22 51  1  0  0  0  0
 23 52  1  0  0  0  0
 23 53  1  0  0  0  0
 24 54  1  0  0  0  0
 24 55  1  0  0  0  0
 24 56  1  0  0  0  0
 25 26  1  0  0  0  0
 25 58  1  0  0  0  0
 26 28  1  0  0  0  0
 26 59  1  0  0  0  0
 27 31  1  0  0  0  0
 28 30  1  0  0  0  0
 28 60  1  0  0  0  0
 29 30  1  0  0  0  0
 29 32  1  0  0  0  0
 29 61  1  0  0  0  0
 30 62  1  0  0  0  0
 31 33  2  0  0  0  0
 31 34  1  0  0  0  0
 32 64  1  0  0  0  0
 32 65  1  0  0  0  0
 33 35  1  0  0  0  0
 33 68  1  0  0  0  0
 34 36  2  0  0  0  0
 34 69  1  0  0  0  0
 35 37  2  0  0  0  0
 35 70  1  0  0  0  0
 36 37  1  0  0  0  0
 36 71  1  0  0  0  0
 38 39  1  0  0  0  0
 39 40  2  0  0  0  0
 39 41  1  0  0  0  0
 40 42  1  0  0  0  0
 40 73  1  0  0  0  0
 41 43  2  0  0  0  0
 41 74  1  0  0  0  0
 42 44  2  0  0  0  0
 42 75  1  0  0  0  0
 43 44  1  0  0  0  0
 43 76  1  0  0  0  0
 45 77  1  0  0  0  0
 45 78  1  0  0  0  0
 45 79  1  0  0  0  0
M  END
> <PUBCHEM_COMPOUND_CID>
21631102

> <PUBCHEM_CONFORMER_RMSD>
1.2

> <PUBCHEM_CONFORMER_DIVERSEORDER>
1
53
5
35
15
39
10
27
57
25
24
33
65
32
40
56
29
28
14
30
17
21
44
54
34
52
12
58
36
64
47
11
62
61
38
19
23
16
63
31
4
41
20
7
46
50
37
6
18
60
2
51
9
42
66
22
55
48
43
8
45
59
49
26
3
13

> <PUBCHEM_MMFF94_PARTIAL_CHARGES>
53
1 -0.56
10 -0.68
11 -0.43
12 -0.53
13 -0.57
14 -0.36
16 0.26
18 0.28
2 -0.56
20 0.56
21 0.56
23 0.28
25 0.56
26 0.28
27 0.63
28 0.28
29 0.28
3 -0.54
30 0.28
31 0.09
32 0.28
33 -0.15
34 -0.15
35 -0.15
36 -0.15
37 0.08
38 0.63
39 0.09
4 -0.68
40 -0.15
41 -0.15
42 -0.15
43 -0.15
44 0.08
45 0.28
5 -0.43
57 0.4
6 -0.56
63 0.4
66 0.4
67 0.4
68 0.15
69 0.15
7 -0.68
70 0.15
71 0.15
72 0.45
73 0.15
74 0.15
75 0.15
76 0.15
8 -0.68
9 -0.57

> <PUBCHEM_EFFECTIVE_ROTOR_COUNT>
13

> <PUBCHEM_PHARMACOPHORE_FEATURES>
20
1 1 acceptor
1 10 acceptor
1 10 donor
1 12 donor
1 13 acceptor
1 14 acceptor
1 2 acceptor
1 3 acceptor
1 4 acceptor
1 4 donor
1 6 acceptor
1 7 acceptor
1 7 donor
1 8 acceptor
1 8 donor
1 9 acceptor
10 1 2 15 16 17 18 19 20 21 22 rings
6 31 33 34 35 36 37 rings
6 39 40 41 42 43 44 rings
6 6 25 26 28 29 30 rings

> <PUBCHEM_HEAVY_ATOM_COUNT>
45

> <PUBCHEM_ATOM_DEF_STEREO_COUNT>
11

> <PUBCHEM_ATOM_UDEF_STEREO_COUNT>
0

> <PUBCHEM_BOND_DEF_STEREO_COUNT>
0

> <PUBCHEM_BOND_UDEF_STEREO_COUNT>
0

> <PUBCHEM_ISOTOPIC_ATOM_COUNT>
0

> <PUBCHEM_COMPONENT_COUNT>
1

> <PUBCHEM_CACTVS_TAUTO_COUNT>
3

> <PUBCHEM_CONFORMER_ID>
014A107E00000001

> <PUBCHEM_MMFF94_ENERGY>
168.2598

> <PUBCHEM_FEATURE_SELFOVERLAP>
101.661

> <PUBCHEM_SHAPE_FINGERPRINT>
10190108 129 18047771552249693051
10439779 11 18272075115571461454
10930396 42 17905582447223161498
1100329 8 18267867190151604627
11421498 54 17904479962854893547
11828532 37 17677630696057447065
12522641 33 18408602528010595405
14004853 49 17841142573898861313
14117953 113 18054225432064712132
150020 26 18273209802870791203
15219462 58 17751938044522711739
15439362 3 18340769217815685317
15484559 13 17762327030153191671
16112460 7 18271535182807027417
17974551 9 18340757195942864735
18393751 57 13221006160546849467
19301679 30 18118691144049668635
20764821 26 18201451254969076847
340366 18 18336826386192159929
460360 51 18411142446080942683
66674814 147 17983019942622244089

> <PUBCHEM_SHAPE_MULTIPOLES>
843.91
12.33
7.01
1.92
12.6
0.14
-0.31
0.04
3.14
-0.02
-0.4
-0.49
0.78
0.41

> <PUBCHEM_SHAPE_SELFOVERLAP>
1882.084

> <PUBCHEM_SHAPE_VOLUME>
449.3

> <PUBCHEM_COORDINATE_TYPE>
2
5
10

$$$$
