90116889
  -OEChem-09132011173D

 69 71  0     1  0  0  0  0  0999 V2000
   -1.8300   -1.5489   -0.7746 O   0  0  0  0  0  0  0  0  0  0  0  0
   -0.0259   -0.0149    2.0078 O   0  0  0  0  0  0  0  0  0  0  0  0
   -1.0913   -2.3465    2.6801 O   0  0  0  0  0  0  0  0  0  0  0  0
   -2.5277   -4.2195   -0.0784 O   0  0  0  0  0  0  0  0  0  0  0  0
   -2.7076    0.3464    2.1653 O   0  0  0  0  0  0  0  0  0  0  0  0
   -0.4435    0.7280   -1.3575 O   0  0  0  0  0  0  0  0  0  0  0  0
    1.3509   -2.3269    1.4334 O   0  0  0  0  0  0  0  0  0  0  0  0
   -2.3770   -5.1561    2.6025 O   0  0  0  0  0  0  0  0  0  0  0  0
    0.9252   -2.0762   -1.7405 O   0  0  0  0  0  0  0  0  0  0  0  0
   -6.4059   -0.8492   -2.0461 O   0  0  0  0  0  0  0  0  0  0  0  0
   -4.7459    3.5911   -1.3629 O   0  0  0  0  0  0  0  0  0  0  0  0
    4.1496    3.2082    0.2325 O   0  0  0  0  0  0  0  0  0  0  0  0
    0.0971    5.0381    2.0122 O   0  0  0  0  0  0  0  0  0  0  0  0
   -6.5234    1.8625   -2.5977 O   0  0  0  0  0  0  0  0  0  0  0  0
    2.8208    5.2477    1.5536 O   0  0  0  0  0  0  0  0  0  0  0  0
    5.8514   -0.3545    1.1770 O   0  0  0  0  0  0  0  0  0  0  0  0
    5.6503   -1.3871   -3.4955 O   0  0  0  0  0  0  0  0  0  0  0  0
    7.1092   -0.5918   -1.2791 O   0  0  0  0  0  0  0  0  0  0  0  0
   -1.6343   -1.1720    0.5818 C   0  0  2  0  0  0  0  0  0  0  0  0
   -0.1814   -0.5524    0.6846 C   0  0  1  0  0  0  0  0  0  0  0  0
   -1.8332   -2.4620    1.4688 C   0  0  1  0  0  0  0  0  0  0  0  0
   -1.4751   -3.8120    0.7878 C   0  0  1  0  0  0  0  0  0  0  0  0
   -2.6942   -0.1261    1.0284 C   0  0  0  0  0  0  0  0  0  0  0  0
   -0.0078    0.6959   -0.2045 C   0  0  0  0  0  0  0  0  0  0  0  0
    0.9238   -1.6083    0.5393 C   0  0  0  0  0  0  0  0  0  0  0  0
   -1.2335   -4.9454    1.7913 C   0  0  0  0  0  0  0  0  0  0  0  0
   -3.7011    0.3963    0.0734 C   0  0  0  0  0  0  0  0  0  0  0  0
    0.7386    1.8951    0.2597 C   0  0  0  0  0  0  0  0  0  0  0  0
    1.6142   -1.7324   -0.7917 C   0  0  0  0  0  0  0  0  0  0  0  0
   -3.7564    1.7625   -0.2028 C   0  0  0  0  0  0  0  0  0  0  0  0
   -4.5934   -0.4773   -0.5479 C   0  0  0  0  0  0  0  0  0  0  0  0
    0.0661    2.9198    0.9259 C   0  0  0  0  0  0  0  0  0  0  0  0
    2.1104    1.9964    0.0288 C   0  0  0  0  0  0  0  0  0  0  0  0
    3.0576   -1.4315   -0.9193 C   0  0  0  0  0  0  0  0  0  0  0  0
   -5.5409    0.0150   -1.4454 C   0  0  0  0  0  0  0  0  0  0  0  0
   -4.7039    2.2549   -1.1003 C   0  0  0  0  0  0  0  0  0  0  0  0
    2.8098    3.1222    0.4637 C   0  0  0  0  0  0  0  0  0  0  0  0
    0.7654    4.0455    1.3610 C   0  0  0  0  0  0  0  0  0  0  0  0
   -5.5961    1.3812   -1.7216 C   0  0  0  0  0  0  0  0  0  0  0  0
    2.1373    4.1466    1.1300 C   0  0  0  0  0  0  0  0  0  0  0  0
    3.6873   -1.5509   -2.1583 C   0  0  0  0  0  0  0  0  0  0  0  0
    3.7885   -1.0294    0.1985 C   0  0  0  0  0  0  0  0  0  0  0  0
    5.1491   -0.7471    0.0776 C   0  0  0  0  0  0  0  0  0  0  0  0
    5.0479   -1.2684   -2.2793 C   0  0  0  0  0  0  0  0  0  0  0  0
    5.7788   -0.8664   -1.1614 C   0  0  0  0  0  0  0  0  0  0  0  0
   -2.8918   -2.5144    1.7552 H   0  0  0  0  0  0  0  0  0  0  0  0
   -0.5746   -3.7105    0.1771 H   0  0  0  0  0  0  0  0  0  0  0  0
   -1.6909   -0.7751   -1.3442 H   0  0  0  0  0  0  0  0  0  0  0  0
   -1.0423   -5.8806    1.2533 H   0  0  0  0  0  0  0  0  0  0  0  0
   -0.3714   -4.7460    2.4348 H   0  0  0  0  0  0  0  0  0  0  0  0
    0.9132    0.1930    2.1529 H   0  0  0  0  0  0  0  0  0  0  0  0
   -0.1600   -2.5519    2.5075 H   0  0  0  0  0  0  0  0  0  0  0  0
   -2.2460   -5.0363   -0.5246 H   0  0  0  0  0  0  0  0  0  0  0  0
   -3.0674    2.4457    0.2837 H   0  0  0  0  0  0  0  0  0  0  0  0
   -4.5581   -1.5413   -0.3255 H   0  0  0  0  0  0  0  0  0  0  0  0
   -0.9993    2.8366    1.1154 H   0  0  0  0  0  0  0  0  0  0  0  0
    2.6236    1.2322   -0.5376 H   0  0  0  0  0  0  0  0  0  0  0  0
   -2.1696   -5.8901    3.2057 H   0  0  0  0  0  0  0  0  0  0  0  0
    3.1237   -1.8633   -3.0341 H   0  0  0  0  0  0  0  0  0  0  0  0
    3.3248   -0.9096    1.1724 H   0  0  0  0  0  0  0  0  0  0  0  0
   -6.2193   -1.7519   -1.7360 H   0  0  0  0  0  0  0  0  0  0  0  0
   -4.0544    4.0382   -0.8452 H   0  0  0  0  0  0  0  0  0  0  0  0
    4.4433    2.4070   -0.2342 H   0  0  0  0  0  0  0  0  0  0  0  0
   -0.8425    4.7962    2.0805 H   0  0  0  0  0  0  0  0  0  0  0  0
   -6.4124    2.8269   -2.6630 H   0  0  0  0  0  0  0  0  0  0  0  0
    2.1935    5.8484    1.9924 H   0  0  0  0  0  0  0  0  0  0  0  0
    5.2532   -0.3238    1.9432 H   0  0  0  0  0  0  0  0  0  0  0  0
    4.9910   -1.6745   -4.1501 H   0  0  0  0  0  0  0  0  0  0  0  0
    7.3700   -0.7289   -2.2064 H   0  0  0  0  0  0  0  0  0  0  0  0
  1 19  1  0  0  0  0
  1 48  1  0  0  0  0
  2 20  1  0  0  0  0
  2 51  1  0  0  0  0
  3 21  1  0  0  0  0
  3 52  1  0  0  0  0
  4 22  1  0  0  0  0
  4 53  1  0  0  0  0
  5 23  2  0  0  0  0
  6 24  2  0  0  0  0
  7 25  2  0  0  0  0
  8 26  1  0  0  0  0
  8 58  1  0  0  0  0
  9 29  2  0  0  0  0
 10 35  1  0  0  0  0
 10 61  1  0  0  0  0
 11 36  1  0  0  0  0
 11 62  1  0  0  0  0
 12 37  1  0  0  0  0
 12 63  1  0  0  0  0
 13 38  1  0  0  0  0
 13 64  1  0  0  0  0
 14 39  1  0  0  0  0
 14 65  1  0  0  0  0
 15 40  1  0  0  0  0
 15 66  1  0  0  0  0
 16 43  1  0  0  0  0
 16 67  1  0  0  0  0
 17 44  1  0  0  0  0
 17 68  1  0  0  0  0
 18 45  1  0  0  0  0
 18 69  1  0  0  0  0
 19 20  1  0  0  0  0
 19 21  1  0  0  0  0
 19 23  1  0  0  0  0
 20 24  1  0  0  0  0
 20 25  1  0  0  0  0
 21 22  1  0  0  0  0
 21 46  1  0  0  0  0
 22 26  1  0  0  0  0
 22 47  1  0  0  0  0
 23 27  1  0  0  0  0
 24 28  1  0  0  0  0
 25 29  1  0  0  0  0
 26 49  1  0  0  0  0
 26 50  1  0  0  0  0
 27 30  2  0  0  0  0
 27 31  1  0  0  0  0
 28 32  2  0  0  0  0
 28 33  1  0  0  0  0
 29 34  1  0  0  0  0
 30 36  1  0  0  0  0
 30 54  1  0  0  0  0
 31 35  2  0  0  0  0
 31 55  1  0  0  0  0
 32 38  1  0  0  0  0
 32 56  1  0  0  0  0
 33 37  2  0  0  0  0
 33 57  1  0  0  0  0
 34 41  2  0  0  0  0
 34 42  1  0  0  0  0
 35 39  1  0  0  0  0
 36 39  2  0  0  0  0
 37 40  1  0  0  0  0
 38 40  2  0  0  0  0
 41 44  1  0  0  0  0
 41 59  1  0  0  0  0
 42 43  2  0  0  0  0
 42 60  1  0  0  0  0
 43 45  1  0  0  0  0
 44 45  2  0  0  0  0
M  END
> <PUBCHEM_COMPOUND_CID>
90116889

> <PUBCHEM_CONFORMER_RMSD>
1.2

> <PUBCHEM_CONFORMER_DIVERSEORDER>
1
79
85
51
104
114
36
33
74
108
28
86
124
101
35
80
78
24
62
25
44
2
7
43
90
58
17
59
64
39
111
14
100
54
130
119
32
98
92
70
126
97
29
50
93
55
19
71
75
67
21
37
83
103
113
53
120
5
117
125
38
128
3
112
13
47
34
65
72
129
82
40
106
20
118
8
87
10
49
95
122
127
96
91
60
69
15
31
94
6
68
89
84
107
73
66
16
123
76
4
116
11
81
61
57
30
105
22
52
46
99
27
115
56
121
109
102
12
110
63
88
42
23
9
48
41
26
45
77
18

> <PUBCHEM_MMFF94_PARTIAL_CHARGES>
65
1 -0.68
10 -0.53
11 -0.53
12 -0.53
13 -0.53
14 -0.53
15 -0.53
16 -0.53
17 -0.53
18 -0.53
19 0.34
2 -0.68
20 0.4
21 0.28
22 0.28
23 0.42
24 0.42
25 0.51
26 0.28
27 0.09
28 0.09
29 0.48
3 -0.68
30 -0.15
31 -0.15
32 -0.15
33 -0.15
34 0.09
35 0.08
36 0.08
37 0.08
38 0.08
39 0.08
4 -0.68
40 0.08
41 -0.15
42 -0.15
43 0.08
44 0.08
45 0.08
48 0.4
5 -0.57
51 0.4
52 0.4
53 0.4
54 0.15
55 0.15
56 0.15
57 0.15
58 0.4
59 0.15
6 -0.57
60 0.15
61 0.45
62 0.45
63 0.45
64 0.45
65 0.45
66 0.45
67 0.45
68 0.45
69 0.45
7 -0.57
8 -0.68
9 -0.57

> <PUBCHEM_EFFECTIVE_ROTOR_COUNT>
11

> <PUBCHEM_PHARMACOPHORE_FEATURES>
26
1 1 acceptor
1 1 donor
1 10 donor
1 11 donor
1 12 donor
1 13 donor
1 14 donor
1 15 donor
1 16 donor
1 17 donor
1 18 donor
1 2 acceptor
1 2 donor
1 3 acceptor
1 3 donor
1 4 acceptor
1 4 donor
1 5 acceptor
1 6 acceptor
1 7 acceptor
1 8 acceptor
1 8 donor
1 9 acceptor
6 27 30 31 35 36 39 rings
6 28 32 33 37 38 40 rings
6 34 41 42 43 44 45 rings

> <PUBCHEM_HEAVY_ATOM_COUNT>
45

> <PUBCHEM_ATOM_DEF_STEREO_COUNT>
4

> <PUBCHEM_ATOM_UDEF_STEREO_COUNT>
0

> <PUBCHEM_BOND_DEF_STEREO_COUNT>
0

> <PUBCHEM_BOND_UDEF_STEREO_COUNT>
0

> <PUBCHEM_ISOTOPIC_ATOM_COUNT>
0

> <PUBCHEM_COMPONENT_COUNT>
1

> <PUBCHEM_CACTVS_TAUTO_COUNT>
1001

> <PUBCHEM_CONFORMER_ID>
055F131900000001

> <PUBCHEM_MMFF94_ENERGY>
141.9798

> <PUBCHEM_FEATURE_SELFOVERLAP>
132.067

> <PUBCHEM_SHAPE_FINGERPRINT>
10006869 2 17042352449224860017
10290309 65 17970653825339500970
10675989 125 17758681044451381087
10930396 42 18122589870536675538
11115154 58 17489021557786355417
11297750 10 17975436890072512539
11578080 2 17969222420460878020
11621639 179 17902219024238319277
12202916 173 18271235033555470534
12293681 160 18264776449811726411
12788726 201 18195813968648587288
13540713 4 18120377815469742267
13911987 19 18263371295663784847
140371 6 18270979955136128176
14068700 686 17545036464745509345
14400156 260 17764311639635564497
15351339 4 18193265291921319401
15444296 7 17274241980735744764
15775530 1 18049738591552535817
15950262 2 15575300695404148524
20511986 3 17022908969235486406
20775438 99 17982704636462741911
22393880 68 18336530652562343261
22440779 20 16954259955110726035
23559900 14 18271522095376758817
24771293 8 17917705791306204024
25223398 141 17677060126726339563
4015057 19 18201445804159686665
46194498 28 18272923956202695447
5171179 24 18196378245451880618
57527295 17 18261951830848200497
5776283 40 18409165528516628783
6004065 56 18130216151405667708
6086070 43 18411133654367758026
613672 6 18271820012343067614

> <PUBCHEM_SHAPE_MULTIPOLES>
820.43
12.89
6.47
2.53
1.15
2.16
-0.59
1.24
-11.66
-0.65
5.17
-0.13
-1.02
4.81

> <PUBCHEM_SHAPE_SELFOVERLAP>
1794.583

> <PUBCHEM_SHAPE_VOLUME>
437.8

> <PUBCHEM_COORDINATE_TYPE>
2
5
10

$$$$
