5365698
  -OEChem-09132012403D

 49 48  0     0  0  0  0  0  0999 V2000
   -2.3416   -1.2207   -1.4236 C   0  0  0  0  0  0  0  0  0  0  0  0
   -2.2370   -1.9639   -0.0893 C   0  0  0  0  0  0  0  0  0  0  0  0
   -3.7099   -0.5621   -1.6434 C   0  0  0  0  0  0  0  0  0  0  0  0
   -0.8922   -2.6719    0.1044 C   0  0  0  0  0  0  0  0  0  0  0  0
   -4.1176    0.4693   -0.5857 C   0  0  0  0  0  0  0  0  0  0  0  0
   -0.8155   -3.4795    1.4009 C   0  0  0  0  0  0  0  0  0  0  0  0
    2.7679    1.0611   -0.4105 C   0  0  0  0  0  0  0  0  0  0  0  0
    4.1525    0.5020   -0.0765 C   0  0  0  0  0  0  0  0  0  0  0  0
    2.3154    2.0835    0.6339 C   0  0  0  0  0  0  0  0  0  0  0  0
   -3.1278    1.5894   -0.4469 C   0  0  0  0  0  0  0  0  0  0  0  0
    4.6202   -0.4947   -1.1368 C   0  0  0  0  0  0  0  0  0  0  0  0
    0.5072   -4.2222    1.5136 C   0  0  0  0  0  0  0  0  0  0  0  0
   -2.4801    1.8750    0.6926 C   0  0  0  0  0  0  0  0  0  0  0  0
   -1.4833    2.9884    0.8287 C   0  0  0  0  0  0  0  0  0  0  0  0
    0.9432    2.6071    0.3236 C   0  0  0  0  0  0  0  0  0  0  0  0
   -0.1112    2.4669    1.1412 C   0  0  0  0  0  0  0  0  0  0  0  0
    6.0098   -1.0276   -0.8261 C   0  0  0  0  0  0  0  0  0  0  0  0
   -2.1663   -1.9290   -2.2428 H   0  0  0  0  0  0  0  0  0  0  0  0
   -1.5459   -0.4694   -1.4904 H   0  0  0  0  0  0  0  0  0  0  0  0
   -2.3801   -1.2689    0.7448 H   0  0  0  0  0  0  0  0  0  0  0  0
   -3.0442   -2.7042   -0.0286 H   0  0  0  0  0  0  0  0  0  0  0  0
   -3.7052   -0.0817   -2.6304 H   0  0  0  0  0  0  0  0  0  0  0  0
   -4.4803   -1.3422   -1.6849 H   0  0  0  0  0  0  0  0  0  0  0  0
   -0.7179   -3.3420   -0.7468 H   0  0  0  0  0  0  0  0  0  0  0  0
   -0.0872   -1.9265    0.0904 H   0  0  0  0  0  0  0  0  0  0  0  0
   -4.2883   -0.0284    0.3759 H   0  0  0  0  0  0  0  0  0  0  0  0
   -5.0825    0.9028   -0.8761 H   0  0  0  0  0  0  0  0  0  0  0  0
   -1.6377   -4.2035    1.4370 H   0  0  0  0  0  0  0  0  0  0  0  0
   -0.9327   -2.8107    2.2613 H   0  0  0  0  0  0  0  0  0  0  0  0
    2.7902    1.5301   -1.4024 H   0  0  0  0  0  0  0  0  0  0  0  0
    2.0449    0.2369   -0.4618 H   0  0  0  0  0  0  0  0  0  0  0  0
    4.8726    1.3264   -0.0056 H   0  0  0  0  0  0  0  0  0  0  0  0
    4.1254    0.0111    0.9039 H   0  0  0  0  0  0  0  0  0  0  0  0
    2.3401    1.6274    1.6312 H   0  0  0  0  0  0  0  0  0  0  0  0
    3.0141    2.9284    0.6530 H   0  0  0  0  0  0  0  0  0  0  0  0
    4.6333   -0.0131   -2.1215 H   0  0  0  0  0  0  0  0  0  0  0  0
    3.9166   -1.3333   -1.1951 H   0  0  0  0  0  0  0  0  0  0  0  0
   -2.9400    2.1892   -1.3341 H   0  0  0  0  0  0  0  0  0  0  0  0
    0.5441   -4.7903    2.4485 H   0  0  0  0  0  0  0  0  0  0  0  0
    0.6351   -4.9248    0.6839 H   0  0  0  0  0  0  0  0  0  0  0  0
    1.3505   -3.5241    1.5064 H   0  0  0  0  0  0  0  0  0  0  0  0
   -2.6750    1.2776    1.5804 H   0  0  0  0  0  0  0  0  0  0  0  0
   -1.8025    3.6470    1.6452 H   0  0  0  0  0  0  0  0  0  0  0  0
   -1.4666    3.6076   -0.0768 H   0  0  0  0  0  0  0  0  0  0  0  0
    0.8204    3.1295   -0.6219 H   0  0  0  0  0  0  0  0  0  0  0  0
    0.0151    1.9504    2.0900 H   0  0  0  0  0  0  0  0  0  0  0  0
    6.7435   -0.2157   -0.7945 H   0  0  0  0  0  0  0  0  0  0  0  0
    6.0252   -1.5429    0.1396 H   0  0  0  0  0  0  0  0  0  0  0  0
    6.3237   -1.7393   -1.5961 H   0  0  0  0  0  0  0  0  0  0  0  0
  1  2  1  0  0  0  0
  1  3  1  0  0  0  0
  1 18  1  0  0  0  0
  1 19  1  0  0  0  0
  2  4  1  0  0  0  0
  2 20  1  0  0  0  0
  2 21  1  0  0  0  0
  3  5  1  0  0  0  0
  3 22  1  0  0  0  0
  3 23  1  0  0  0  0
  4  6  1  0  0  0  0
  4 24  1  0  0  0  0
  4 25  1  0  0  0  0
  5 10  1  0  0  0  0
  5 26  1  0  0  0  0
  5 27  1  0  0  0  0
  6 12  1  0  0  0  0
  6 28  1  0  0  0  0
  6 29  1  0  0  0  0
  7  8  1  0  0  0  0
  7  9  1  0  0  0  0
  7 30  1  0  0  0  0
  7 31  1  0  0  0  0
  8 11  1  0  0  0  0
  8 32  1  0  0  0  0
  8 33  1  0  0  0  0
  9 15  1  0  0  0  0
  9 34  1  0  0  0  0
  9 35  1  0  0  0  0
 10 13  2  0  0  0  0
 10 38  1  0  0  0  0
 11 17  1  0  0  0  0
 11 36  1  0  0  0  0
 11 37  1  0  0  0  0
 12 39  1  0  0  0  0
 12 40  1  0  0  0  0
 12 41  1  0  0  0  0
 13 14  1  0  0  0  0
 13 42  1  0  0  0  0
 14 16  1  0  0  0  0
 14 43  1  0  0  0  0
 14 44  1  0  0  0  0
 15 16  2  0  0  0  0
 15 45  1  0  0  0  0
 16 46  1  0  0  0  0
 17 47  1  0  0  0  0
 17 48  1  0  0  0  0
 17 49  1  0  0  0  0
M  END
> <PUBCHEM_COMPOUND_CID>
5365698

> <PUBCHEM_CONFORMER_RMSD>
1

> <PUBCHEM_CONFORMER_DIVERSEORDER>
1
221
149
3
241
84
14
261
225
13
250
191
115
109
157
257
94
197
316
75
171
198
8
328
335
62
113
39
202
313
247
7
92
172
195
103
236
290
119
112
208
185
272
29
69
289
162
55
201
4
21
207
217
169
280
260
105
308
139
211
37
121
70
125
307
344
263
153
43
295
51
93
110
174
252
44
271
52
108
87
147
81
132
182
232
173
33
286
123
118
50
237
150
283
15
161
279
154
177
129
12
166
78
73
148
273
6
141
338
127
310
114
131
97
24
128
160
291
253
274
143
36
122
22
27
339
38
284
106
183
71
146
267
64
72
68
334
136
193
220
102
229
40
299
306
152
176
244
205
155
47
186
210
270
61
57
327
226
134
31
259
60
2
25
199
292
336
107
231
245
137
117
77
130
318
297
189
206
83
101
235
95
86
248
204
26
218
264
181
138
80
287
243
34
46
180
341
164
96
312
277
53
314
329
41
200
309
165
18
268
91
281
175
234
278
89
227
142
228
163
256
255
30
305
249
187
99
321
79
212
100
159
63
67
266
111
275
213
82
116
20
222
76
285
54
311
58
194
298
315
330
9
342
239
203
242
302
48
158
124
104
251
74
156
240
42
331
282
223
179
140
56
17
233
196
300
303
343
209
265
184
126
90
219
28
215
88
167
133
170
288
332
304
98
45
151
317
333
224
5
32
49
66
337
85
35
262
323
258
301
178
144
188
214
120
294
254
269
135
238
19
59
10
324
319
16
23
325
296
190
246
11
320
340
216
145
65
322
168
276
326
230
192
293

> <PUBCHEM_MMFF94_PARTIAL_CHARGES>
11
10 -0.29
13 -0.29
14 0.28
15 -0.29
16 -0.29
38 0.15
42 0.15
45 0.15
46 0.15
5 0.14
9 0.14

> <PUBCHEM_EFFECTIVE_ROTOR_COUNT>
12

> <PUBCHEM_PHARMACOPHORE_FEATURES>
3
1 12 hydrophobe
1 17 hydrophobe
5 7 8 9 11 15 hydrophobe

> <PUBCHEM_HEAVY_ATOM_COUNT>
17

> <PUBCHEM_ATOM_DEF_STEREO_COUNT>
0

> <PUBCHEM_ATOM_UDEF_STEREO_COUNT>
0

> <PUBCHEM_BOND_DEF_STEREO_COUNT>
2

> <PUBCHEM_BOND_UDEF_STEREO_COUNT>
0

> <PUBCHEM_ISOTOPIC_ATOM_COUNT>
0

> <PUBCHEM_COMPONENT_COUNT>
1

> <PUBCHEM_CACTVS_TAUTO_COUNT>
1

> <PUBCHEM_CONFORMER_ID>
0051DFC200000001

> <PUBCHEM_MMFF94_ENERGY>
-4.2107

> <PUBCHEM_FEATURE_SELFOVERLAP>
15.224

> <PUBCHEM_SHAPE_FINGERPRINT>
11458722 379 18413106139013626093
12712778 12 18263063566137550266
13941206 138 18187652362397333874
14251740 79 18342179929777252260
14251757 5 18191605214347320334
14916288 52 17979075203801656048
14931854 50 18339074900155339262
15322534 239 18338525114741422798
167882 2 17399797099419775461
17627616 140 18046627798491316154
17859628 97 18338804412095608153
20765182 114 17114387494537134271
23428019 142 18260552229950833754
23466295 7 18190194561812967642
445580 42 18335712649859435986
474144 1 17970331629961791290
5282940 2 18048032965334086634
9709674 26 18199462349708440980

> <PUBCHEM_SHAPE_MULTIPOLES>
349.85
9.42
5.19
1.48
13.33
3.93
0.05
0.33
5.44
-1.4
-3.56
-0.47
0.82
-0.03

> <PUBCHEM_SHAPE_SELFOVERLAP>
635.008

> <PUBCHEM_SHAPE_VOLUME>
222.1

> <PUBCHEM_COORDINATE_TYPE>
2
5
10

$$$$
