53831489
  -OEChem-09132011442D

159167  0     1  0  0  0  0  0999 V2000
    8.9189   -0.7660    0.0000 O   0  0  0  0  0  0  0  0  0  0  0  0
    8.1529   -1.4088    0.0000 O   0  0  0  0  0  0  0  0  0  0  0  0
    8.3994    1.4088    0.0000 O   0  0  0  0  0  0  0  0  0  0  0  0
    7.3673    0.9893    0.0000 O   0  0  0  0  0  0  0  0  0  0  0  0
    9.5113   -1.1081    0.0000 O   0  0  0  0  0  0  0  0  0  0  0  0
    7.4597    1.7508    0.0000 O   0  0  0  0  0  0  0  0  0  0  0  0
    5.8044   -0.9436    0.0000 O   0  0  0  0  0  0  0  0  0  0  0  0
   10.5743    1.9284    0.0000 O   0  0  0  0  0  0  0  0  0  0  0  0
    6.5666    1.8290    0.0000 O   0  0  0  0  0  0  0  0  0  0  0  0
    5.3585    0.3894    0.0000 O   0  0  0  0  0  0  0  0  0  0  0  0
   10.2458    0.3473    0.0000 O   0  0  0  0  0  0  0  0  0  0  0  0
    7.0448   -2.9912    0.0000 O   0  0  0  0  0  0  0  0  0  0  0  0
    6.9411   -1.7188    0.0000 O   0  0  0  0  0  0  0  0  0  0  0  0
    9.7262    2.5222    0.0000 O   0  0  0  0  0  0  0  0  0  0  0  0
    8.8673    0.1233    0.0000 O   0  0  0  0  0  0  0  0  0  0  0  0
    4.3782    1.9508    0.0000 O   0  0  0  0  0  0  0  0  0  0  0  0
    4.3820   -0.8630    0.0000 O   0  0  0  0  0  0  0  0  0  0  0  0
    8.4761   -4.2856    0.0000 O   0  0  0  0  0  0  0  0  0  0  0  0
    5.0120   -4.2856    0.0000 O   0  0  0  0  0  0  0  0  0  0  0  0
    3.6941    0.0715    0.0000 O   0  0  0  0  0  0  0  0  0  0  0  0
   12.8082    3.0176    0.0000 O   0  0  0  0  0  0  0  0  0  0  0  0
   12.8082   -0.4465    0.0000 O   0  0  0  0  0  0  0  0  0  0  0  0
    6.7441   -5.2856    0.0000 O   0  0  0  0  0  0  0  0  0  0  0  0
    2.7604    0.8894    0.0000 O   0  0  0  0  0  0  0  0  0  0  0  0
    4.4925    3.8893    0.0000 O   0  0  0  0  0  0  0  0  0  0  0  0
   13.8082    1.2856    0.0000 O   0  0  0  0  0  0  0  0  0  0  0  0
    2.7605    2.8894    0.0000 O   0  0  0  0  0  0  0  0  0  0  0  0
   13.3152   -1.1939    0.0000 O   0  0  0  0  0  0  0  0  0  0  0  0
   11.6043   -3.8024    0.0000 O   0  0  0  0  0  0  0  0  0  0  0  0
   10.6769   -4.5806    0.0000 O   0  0  0  0  0  0  0  0  0  0  0  0
    7.8109   -5.8126    0.0000 O   0  0  0  0  0  0  0  0  0  0  0  0
    4.2688   -4.3765    0.0000 O   0  0  0  0  0  0  0  0  0  0  0  0
    2.5372   -1.3761    0.0000 O   0  0  0  0  0  0  0  0  0  0  0  0
   12.9679   -3.1636    0.0000 O   0  0  0  0  0  0  0  0  0  0  0  0
    5.7414    4.0806    0.0000 O   0  0  0  0  0  0  0  0  0  0  0  0
    8.7414    5.8126    0.0000 O   0  0  0  0  0  0  0  0  0  0  0  0
    9.8109   -5.8126    0.0000 O   0  0  0  0  0  0  0  0  0  0  0  0
   11.3070    3.0633    0.0000 O   0  0  0  0  0  0  0  0  0  0  0  0
    9.0410    4.5722    0.0000 O   0  0  0  0  0  0  0  0  0  0  0  0
    2.5369   -3.3762    0.0000 O   0  0  0  0  0  0  0  0  0  0  0  0
    6.7414    5.8126    0.0000 O   0  0  0  0  0  0  0  0  0  0  0  0
   10.3673    4.4534    0.0000 O   0  0  0  0  0  0  0  0  0  0  0  0
    8.2762    0.0000    0.0000 C   0  0  1  0  0  0  0  0  0  0  0  0
    7.5101   -0.6428    0.0000 C   0  0  1  0  0  0  0  0  0  0  0  0
    9.0422    0.6428    0.0000 C   0  0  1  0  0  0  0  0  0  0  0  0
    6.8673    0.1233    0.0000 C   0  0  1  0  0  0  0  0  0  0  0  0
    7.6334    0.7660    0.0000 C   0  0  0  0  0  0  0  0  0  0  0  0
    6.7441   -1.2856    0.0000 C   0  0  0  0  0  0  0  0  0  0  0  0
    9.6850   -0.1233    0.0000 C   0  0  0  0  0  0  0  0  0  0  0  0
    9.8082    1.2856    0.0000 C   0  0  0  0  0  0  0  0  0  0  0  0
    6.2245    0.8893    0.0000 C   0  0  0  0  0  0  0  0  0  0  0  0
    6.0013   -0.3767    0.0000 C   0  0  0  0  0  0  0  0  0  0  0  0
    6.6486    0.5924    0.0000 C   0  0  0  0  0  0  0  0  0  0  0  0
    6.7441   -2.2856    0.0000 C   0  0  0  0  0  0  0  0  0  0  0  0
   10.8082    1.2856    0.0000 C   0  0  0  0  0  0  0  0  0  0  0  0
    5.3586    1.3894    0.0000 C   0  0  0  0  0  0  0  0  0  0  0  0
    9.9038   -0.5924    0.0000 C   0  0  0  0  0  0  0  0  0  0  0  0
    7.8109   -2.3485    0.0000 C   0  0  0  0  0  0  0  0  0  0  0  0
    6.0013   -1.3768    0.0000 C   0  0  0  0  0  0  0  0  0  0  0  0
    8.7414    2.3485    0.0000 C   0  0  0  0  0  0  0  0  0  0  0  0
    8.3673    0.9893    0.0000 C   0  0  0  0  0  0  0  0  0  0  0  0
    6.3065   -0.3473    0.0000 C   0  0  0  0  0  0  0  0  0  0  0  0
    6.0058    1.3584    0.0000 C   0  0  0  0  0  0  0  0  0  0  0  0
    5.8780   -2.7856    0.0000 C   0  0  0  0  0  0  0  0  0  0  0  0
    7.6101   -2.7856    0.0000 C   0  0  0  0  0  0  0  0  0  0  0  0
   11.3082    0.4196    0.0000 C   0  0  0  0  0  0  0  0  0  0  0  0
   11.3082    2.1516    0.0000 C   0  0  0  0  0  0  0  0  0  0  0  0
   10.6698   -1.2352    0.0000 C   0  0  0  0  0  0  0  0  0  0  0  0
    8.3109   -3.2146    0.0000 C   0  0  0  0  0  0  0  0  0  0  0  0
    5.3585    2.3893    0.0000 C   0  0  0  0  0  0  0  0  0  0  0  0
    4.4925    0.8894    0.0000 C   0  0  0  0  0  0  0  0  0  0  0  0
    5.1352   -1.8767    0.0000 C   0  0  0  0  0  0  0  0  0  0  0  0
    8.2414    3.2146    0.0000 C   0  0  0  0  0  0  0  0  0  0  0  0
    5.0210    1.1848    0.0000 C   0  0  0  0  0  0  0  0  0  0  0  0
    5.3217   -0.5209    0.0000 C   0  0  0  0  0  0  0  0  0  0  0  0
    7.6101   -3.7856    0.0000 C   0  0  0  0  0  0  0  0  0  0  0  0
    5.8780   -3.7856    0.0000 C   0  0  0  0  0  0  0  0  0  0  0  0
    8.8673    1.8553    0.0000 C   0  0  0  0  0  0  0  0  0  0  0  0
    4.6789    0.2451    0.0000 C   0  0  0  0  0  0  0  0  0  0  0  0
   12.3082    2.1516    0.0000 C   0  0  0  0  0  0  0  0  0  0  0  0
   12.3082    0.4196    0.0000 C   0  0  0  0  0  0  0  0  0  0  0  0
    6.7441   -4.2856    0.0000 C   0  0  0  0  0  0  0  0  0  0  0  0
    3.6265    1.3894    0.0000 C   0  0  0  0  0  0  0  0  0  0  0  0
    4.4925    2.8893    0.0000 C   0  0  0  0  0  0  0  0  0  0  0  0
   12.8082    1.2856    0.0000 C   0  0  0  0  0  0  0  0  0  0  0  0
   10.4961   -2.2200    0.0000 C   0  0  0  0  0  0  0  0  0  0  0  0
   11.6095   -0.8932    0.0000 C   0  0  0  0  0  0  0  0  0  0  0  0
    7.8109   -4.0806    0.0000 C   0  0  0  0  0  0  0  0  0  0  0  0
    9.3109   -3.2146    0.0000 C   0  0  0  0  0  0  0  0  0  0  0  0
    3.6265    2.3894    0.0000 C   0  0  0  0  0  0  0  0  0  0  0  0
    4.2692   -1.3765    0.0000 C   0  0  0  0  0  0  0  0  0  0  0  0
    5.1351   -2.8766    0.0000 C   0  0  0  0  0  0  0  0  0  0  0  0
    8.7414    4.0806    0.0000 C   0  0  0  0  0  0  0  0  0  0  0  0
    7.2414    3.2146    0.0000 C   0  0  0  0  0  0  0  0  0  0  0  0
    8.3673    2.7213    0.0000 C   0  0  0  0  0  0  0  0  0  0  0  0
    9.8673    1.8553    0.0000 C   0  0  0  0  0  0  0  0  0  0  0  0
   12.3755   -1.5360    0.0000 C   0  0  0  0  0  0  0  0  0  0  0  0
   11.2622   -2.8628    0.0000 C   0  0  0  0  0  0  0  0  0  0  0  0
    9.8109   -4.0806    0.0000 C   0  0  0  0  0  0  0  0  0  0  0  0
    8.3109   -4.9466    0.0000 C   0  0  0  0  0  0  0  0  0  0  0  0
    4.2690   -3.3765    0.0000 C   0  0  0  0  0  0  0  0  0  0  0  0
    3.4031   -1.8763    0.0000 C   0  0  0  0  0  0  0  0  0  0  0  0
   12.2019   -2.5208    0.0000 C   0  0  0  0  0  0  0  0  0  0  0  0
    6.7414    4.0806    0.0000 C   0  0  0  0  0  0  0  0  0  0  0  0
    8.2414    4.9466    0.0000 C   0  0  0  0  0  0  0  0  0  0  0  0
    9.3109   -4.9466    0.0000 C   0  0  0  0  0  0  0  0  0  0  0  0
   10.3673    2.7213    0.0000 C   0  0  0  0  0  0  0  0  0  0  0  0
    8.8673    3.5874    0.0000 C   0  0  0  0  0  0  0  0  0  0  0  0
    3.4030   -2.8764    0.0000 C   0  0  0  0  0  0  0  0  0  0  0  0
    7.2414    4.9466    0.0000 C   0  0  0  0  0  0  0  0  0  0  0  0
    9.8673    3.5874    0.0000 C   0  0  0  0  0  0  0  0  0  0  0  0
   10.2543   -0.3688    0.0000 H   0  0  0  0  0  0  0  0  0  0  0  0
   10.0552    0.3741    0.0000 H   0  0  0  0  0  0  0  0  0  0  0  0
    9.9863   -1.5066    0.0000 H   0  0  0  0  0  0  0  0  0  0  0  0
    6.7051   -0.8222    0.0000 H   0  0  0  0  0  0  0  0  0  0  0  0
    6.2178    1.9410    0.0000 H   0  0  0  0  0  0  0  0  0  0  0  0
    5.3411   -2.4756    0.0000 H   0  0  0  0  0  0  0  0  0  0  0  0
    8.1470   -2.4756    0.0000 H   0  0  0  0  0  0  0  0  0  0  0  0
   10.9982   -0.1174    0.0000 H   0  0  0  0  0  0  0  0  0  0  0  0
   10.9982    2.6885    0.0000 H   0  0  0  0  0  0  0  0  0  0  0  0
    5.8954    2.6993    0.0000 H   0  0  0  0  0  0  0  0  0  0  0  0
    4.4925    0.2694    0.0000 H   0  0  0  0  0  0  0  0  0  0  0  0
    9.9135   -2.4320    0.0000 H   0  0  0  0  0  0  0  0  0  0  0  0
   11.7171   -0.2826    0.0000 H   0  0  0  0  0  0  0  0  0  0  0  0
    7.1909   -4.0806    0.0000 H   0  0  0  0  0  0  0  0  0  0  0  0
    9.6209   -2.6776    0.0000 H   0  0  0  0  0  0  0  0  0  0  0  0
    4.2693   -0.7565    0.0000 H   0  0  0  0  0  0  0  0  0  0  0  0
    5.6720   -3.1867    0.0000 H   0  0  0  0  0  0  0  0  0  0  0  0
    9.3614    4.0806    0.0000 H   0  0  0  0  0  0  0  0  0  0  0  0
    6.9314    2.6776    0.0000 H   0  0  0  0  0  0  0  0  0  0  0  0
    7.7473    2.7213    0.0000 H   0  0  0  0  0  0  0  0  0  0  0  0
   10.1773    1.3184    0.0000 H   0  0  0  0  0  0  0  0  0  0  0  0
    3.7676    1.8432    0.0000 H   0  0  0  0  0  0  0  0  0  0  0  0
    3.7714   -0.7552    0.0000 H   0  0  0  0  0  0  0  0  0  0  0  0
    9.0130   -3.9756    0.0000 H   0  0  0  0  0  0  0  0  0  0  0  0
    5.0120   -4.9056    0.0000 H   0  0  0  0  0  0  0  0  0  0  0  0
    3.2956    0.5464    0.0000 H   0  0  0  0  0  0  0  0  0  0  0  0
   13.4282    3.0176    0.0000 H   0  0  0  0  0  0  0  0  0  0  0  0
   13.4282   -0.4465    0.0000 H   0  0  0  0  0  0  0  0  0  0  0  0
    6.2071   -5.5956    0.0000 H   0  0  0  0  0  0  0  0  0  0  0  0
    2.2235    1.1994    0.0000 H   0  0  0  0  0  0  0  0  0  0  0  0
    3.9556    4.1993    0.0000 H   0  0  0  0  0  0  0  0  0  0  0  0
   14.1182    1.8225    0.0000 H   0  0  0  0  0  0  0  0  0  0  0  0
    2.7604    3.5093    0.0000 H   0  0  0  0  0  0  0  0  0  0  0  0
   13.7902   -1.5925    0.0000 H   0  0  0  0  0  0  0  0  0  0  0  0
   12.2148   -3.9101    0.0000 H   0  0  0  0  0  0  0  0  0  0  0  0
   10.6769   -5.2006    0.0000 H   0  0  0  0  0  0  0  0  0  0  0  0
    8.1209   -6.3496    0.0000 H   0  0  0  0  0  0  0  0  0  0  0  0
    3.7318   -4.6864    0.0000 H   0  0  0  0  0  0  0  0  0  0  0  0
    2.0002   -1.6861    0.0000 H   0  0  0  0  0  0  0  0  0  0  0  0
   13.5505   -2.9515    0.0000 H   0  0  0  0  0  0  0  0  0  0  0  0
    5.4314    4.6175    0.0000 H   0  0  0  0  0  0  0  0  0  0  0  0
    8.4314    6.3496    0.0000 H   0  0  0  0  0  0  0  0  0  0  0  0
    9.5009   -6.3496    0.0000 H   0  0  0  0  0  0  0  0  0  0  0  0
   11.4147    3.6739    0.0000 H   0  0  0  0  0  0  0  0  0  0  0  0
    9.6236    4.7842    0.0000 H   0  0  0  0  0  0  0  0  0  0  0  0
    2.0000   -3.0661    0.0000 H   0  0  0  0  0  0  0  0  0  0  0  0
    7.0514    6.3496    0.0000 H   0  0  0  0  0  0  0  0  0  0  0  0
   10.9873    4.4534    0.0000 H   0  0  0  0  0  0  0  0  0  0  0  0
 43  1  1  6  0  0  0
  1 57  1  0  0  0  0
 44  2  1  6  0  0  0
  2 58  1  0  0  0  0
 45  3  1  6  0  0  0
  3 60  1  0  0  0  0
 46  4  1  6  0  0  0
  4 61  1  0  0  0  0
  5 49  1  0  0  0  0
  5114  1  0  0  0  0
  6 47  2  0  0  0  0
  7 48  2  0  0  0  0
  8 50  2  0  0  0  0
  9 51  2  0  0  0  0
 10 52  2  0  0  0  0
 11 57  2  0  0  0  0
 12 58  2  0  0  0  0
 13 59  2  0  0  0  0
 14 60  2  0  0  0  0
 15 61  2  0  0  0  0
 16 74  1  0  0  0  0
 16133  1  0  0  0  0
 17 75  1  0  0  0  0
 17134  1  0  0  0  0
 18 76  1  0  0  0  0
 18135  1  0  0  0  0
 19 77  1  0  0  0  0
 19136  1  0  0  0  0
 20 79  1  0  0  0  0
 20137  1  0  0  0  0
 21 80  1  0  0  0  0
 21138  1  0  0  0  0
 22 81  1  0  0  0  0
 22139  1  0  0  0  0
 23 82  1  0  0  0  0
 23140  1  0  0  0  0
 24 83  1  0  0  0  0
 24141  1  0  0  0  0
 25 84  1  0  0  0  0
 25142  1  0  0  0  0
 26 85  1  0  0  0  0
 26143  1  0  0  0  0
 27 90  1  0  0  0  0
 27144  1  0  0  0  0
 28 97  1  0  0  0  0
 28145  1  0  0  0  0
 29 98  1  0  0  0  0
 29146  1  0  0  0  0
 30 99  1  0  0  0  0
 30147  1  0  0  0  0
 31100  1  0  0  0  0
 31148  1  0  0  0  0
 32101  1  0  0  0  0
 32149  1  0  0  0  0
 33102  1  0  0  0  0
 33150  1  0  0  0  0
 34103  1  0  0  0  0
 34151  1  0  0  0  0
 35104  1  0  0  0  0
 35152  1  0  0  0  0
 36105  1  0  0  0  0
 36153  1  0  0  0  0
 37106  1  0  0  0  0
 37154  1  0  0  0  0
 38107  1  0  0  0  0
 38155  1  0  0  0  0
 39108  1  0  0  0  0
 39156  1  0  0  0  0
 40109  1  0  0  0  0
 40157  1  0  0  0  0
 41110  1  0  0  0  0
 41158  1  0  0  0  0
 42111  1  0  0  0  0
 42159  1  0  0  0  0
 43 44  1  0  0  0  0
 43 45  1  0  0  0  0
 43 47  1  0  0  0  0
 44 46  1  0  0  0  0
 44 48  1  0  0  0  0
 45 49  1  0  0  0  0
 45 50  1  0  0  0  0
 46 51  1  0  0  0  0
 46 52  1  0  0  0  0
 47 53  1  0  0  0  0
 48 54  1  0  0  0  0
 49112  1  0  0  0  0
 49113  1  0  0  0  0
 50 55  1  0  0  0  0
 51 56  1  0  0  0  0
 52 59  1  0  0  0  0
 53 62  2  0  0  0  0
 53 63  1  0  0  0  0
 54 64  2  0  0  0  0
 54 65  1  0  0  0  0
 55 66  2  0  0  0  0
 55 67  1  0  0  0  0
 56 70  2  0  0  0  0
 56 71  1  0  0  0  0
 57 68  1  0  0  0  0
 58 69  1  0  0  0  0
 59 72  1  0  0  0  0
 60 73  1  0  0  0  0
 61 78  1  0  0  0  0
 62 75  1  0  0  0  0
 62115  1  0  0  0  0
 63 74  2  0  0  0  0
 63116  1  0  0  0  0
 64 77  1  0  0  0  0
 64117  1  0  0  0  0
 65 76  2  0  0  0  0
 65118  1  0  0  0  0
 66 81  1  0  0  0  0
 66119  1  0  0  0  0
 67 80  2  0  0  0  0
 67120  1  0  0  0  0
 68 86  2  0  0  0  0
 68 87  1  0  0  0  0
 69 88  2  0  0  0  0
 69 89  1  0  0  0  0
 70 84  1  0  0  0  0
 70121  1  0  0  0  0
 71 83  2  0  0  0  0
 71122  1  0  0  0  0
 72 91  2  0  0  0  0
 72 92  1  0  0  0  0
 73 93  2  0  0  0  0
 73 94  1  0  0  0  0
 74 79  1  0  0  0  0
 75 79  2  0  0  0  0
 76 82  1  0  0  0  0
 77 82  2  0  0  0  0
 78 95  2  0  0  0  0
 78 96  1  0  0  0  0
 80 85  1  0  0  0  0
 81 85  2  0  0  0  0
 83 90  1  0  0  0  0
 84 90  2  0  0  0  0
 86 98  1  0  0  0  0
 86123  1  0  0  0  0
 87 97  2  0  0  0  0
 87124  1  0  0  0  0
 88100  1  0  0  0  0
 88125  1  0  0  0  0
 89 99  2  0  0  0  0
 89126  1  0  0  0  0
 91102  1  0  0  0  0
 91127  1  0  0  0  0
 92101  2  0  0  0  0
 92128  1  0  0  0  0
 93105  1  0  0  0  0
 93129  1  0  0  0  0
 94104  2  0  0  0  0
 94130  1  0  0  0  0
 95108  1  0  0  0  0
 95131  1  0  0  0  0
 96107  2  0  0  0  0
 96132  1  0  0  0  0
 97103  1  0  0  0  0
 98103  2  0  0  0  0
 99106  1  0  0  0  0
100106  2  0  0  0  0
101109  1  0  0  0  0
102109  2  0  0  0  0
104110  1  0  0  0  0
105110  2  0  0  0  0
107111  1  0  0  0  0
108111  2  0  0  0  0
M  END
> <PUBCHEM_COMPOUND_CID>
53831489

> <PUBCHEM_COMPOUND_CANONICALIZED>
1

> <PUBCHEM_CACTVS_COMPLEXITY>
3290

> <PUBCHEM_CACTVS_HBOND_ACCEPTOR>
42

> <PUBCHEM_CACTVS_HBOND_DONOR>
28

> <PUBCHEM_CACTVS_ROTATABLE_BOND>
27

> <PUBCHEM_CACTVS_SUBSKEYS>
AAADcfB8PgAAAAAAAAAAAAAAAAAAAAAAAAAwYMGDAAAAAAABVAAAGgAACAAADESgmAIwDoAABgCIAqDSCAICAAAkIAAAiAFGiMgJNzaKNR6CcQEl4BULuYfL7vzuoAABCAAAQABAAAIQAACAAAAAAAAAAA==

> <PUBCHEM_IUPAC_OPENEYE_NAME>
[(1R,2R,3S,4S)-1-(hydroxymethyl)-5,6-dioxo-1,2,3,4-tetrakis(3,4,5-trihydroxybenzoyl)-2,3,4-tris[(3,4,5-trihydroxybenzoyl)oxy]-6-(3,4,5-trihydroxyphenyl)hexyl] 3,4,5-trihydroxybenzoate

> <PUBCHEM_IUPAC_CAS_NAME>
3,4,5-trihydroxybenzoic acid [(2R,3R,4S,5S)-2-(hydroxymethyl)-1,6,7-trioxo-3,4,5-tris[oxo-(3,4,5-trihydroxyphenyl)methoxy]-3,4,5-tris[oxo-(3,4,5-trihydroxyphenyl)methyl]-1,7-bis(3,4,5-trihydroxyphenyl)heptan-2-yl] ester

> <PUBCHEM_IUPAC_NAME_MARKUP>
[(2<I>R</I>,3<I>R</I>,4<I>S</I>,5<I>S</I>)-2-(hydroxymethyl)-1,6,7-trioxo-3,4,5-tris(3,4,5-trihydroxybenzoyl)-3,4,5-tris[(3,4,5-trihydroxybenzoyl)oxy]-1,7-bis(3,4,5-trihydroxyphenyl)heptan-2-yl] 3,4,5-trihydroxybenzoate

> <PUBCHEM_IUPAC_NAME>
[(2R,3R,4S,5S)-2-(hydroxymethyl)-1,6,7-trioxo-3,4,5-tris(3,4,5-trihydroxybenzoyl)-3,4,5-tris[(3,4,5-trihydroxybenzoyl)oxy]-1,7-bis(3,4,5-trihydroxyphenyl)heptan-2-yl] 3,4,5-trihydroxybenzoate

> <PUBCHEM_IUPAC_SYSTEMATIC_NAME>
[(2R,3R,4S,5S)-2-(hydroxymethyl)-1,6,7-tris(oxidanylidene)-1,7-bis[3,4,5-tris(oxidanyl)phenyl]-3,4,5-tris[[3,4,5-tris(oxidanyl)phenyl]carbonyl]-3,4,5-tris[[3,4,5-tris(oxidanyl)phenyl]carbonyloxy]heptan-2-yl] 3,4,5-tris(oxidanyl)benzoate

> <PUBCHEM_IUPAC_TRADITIONAL_NAME>
3,4,5-trihydroxybenzoic acid [(1R,2R,3S,4S)-1,2,3,4-tetragalloyl-2,3,4-trigalloyloxy-5,6-diketo-1-methylol-6-(3,4,5-trihydroxyphenyl)hexyl] ester

> <PUBCHEM_IUPAC_INCHI>
InChI=1S/C69H48O42/c70-19-66(57(99)21-3-31(73)49(91)32(74)4-21,108-62(104)25-11-39(81)53(95)40(82)12-25)68(59(101)23-7-35(77)51(93)36(78)8-23,110-64(106)27-15-43(85)55(97)44(86)16-27)69(60(102)24-9-37(79)52(94)38(80)10-24,111-65(107)28-17-45(87)56(98)46(88)18-28)67(58(100)22-5-33(75)50(92)34(76)6-22,109-63(105)26-13-41(83)54(96)42(84)14-26)61(103)47(89)20-1-29(71)48(90)30(72)2-20/h1-18,70-88,90-98H,19H2/t66-,67-,68+,69+/m0/s1

> <PUBCHEM_IUPAC_INCHIKEY>
GCTQKIHMURRLCN-FPNCMRKBSA-N

> <PUBCHEM_XLOGP3_AA>
2.4

> <PUBCHEM_EXACT_MASS>
1548.162016

> <PUBCHEM_MOLECULAR_FORMULA>
C69H48O42

> <PUBCHEM_MOLECULAR_WEIGHT>
1549.1

> <PUBCHEM_OPENEYE_CAN_SMILES>
C1=C(C=C(C(=C1O)O)O)C(=O)C(=O)C(C(=O)C2=CC(=C(C(=C2)O)O)O)(C(C(=O)C3=CC(=C(C(=C3)O)O)O)(C(C(=O)C4=CC(=C(C(=C4)O)O)O)(C(CO)(C(=O)C5=CC(=C(C(=C5)O)O)O)OC(=O)C6=CC(=C(C(=C6)O)O)O)OC(=O)C7=CC(=C(C(=C7)O)O)O)OC(=O)C8=CC(=C(C(=C8)O)O)O)OC(=O)C9=CC(=C(C(=C9)O)O)O

> <PUBCHEM_OPENEYE_ISO_SMILES>
C1=C(C=C(C(=C1O)O)O)C(=O)C(=O)[C@@](C(=O)C2=CC(=C(C(=C2)O)O)O)([C@](C(=O)C3=CC(=C(C(=C3)O)O)O)([C@@](C(=O)C4=CC(=C(C(=C4)O)O)O)([C@](CO)(C(=O)C5=CC(=C(C(=C5)O)O)O)OC(=O)C6=CC(=C(C(=C6)O)O)O)OC(=O)C7=CC(=C(C(=C7)O)O)O)OC(=O)C8=CC(=C(C(=C8)O)O)O)OC(=O)C9=CC(=C(C(=C9)O)O)O

> <PUBCHEM_CACTVS_TPSA>
774

> <PUBCHEM_MONOISOTOPIC_WEIGHT>
1548.162016

> <PUBCHEM_TOTAL_CHARGE>
0

> <PUBCHEM_HEAVY_ATOM_COUNT>
111

> <PUBCHEM_ATOM_DEF_STEREO_COUNT>
4

> <PUBCHEM_ATOM_UDEF_STEREO_COUNT>
0

> <PUBCHEM_BOND_DEF_STEREO_COUNT>
0

> <PUBCHEM_BOND_UDEF_STEREO_COUNT>
0

> <PUBCHEM_ISOTOPIC_ATOM_COUNT>
0

> <PUBCHEM_COMPONENT_COUNT>
1

> <PUBCHEM_CACTVS_TAUTO_COUNT>
-1

> <PUBCHEM_COORDINATE_TYPE>
1
5
255

> <PUBCHEM_BONDANNOTATIONS>
43  1  6
100  106  8
101  109  8
102  109  8
104  110  8
105  110  8
107  111  8
108  111  8
44  2  6
45  3  6
46  4  6
53  62  8
53  63  8
54  64  8
54  65  8
55  66  8
55  67  8
56  70  8
56  71  8
62  75  8
63  74  8
64  77  8
65  76  8
66  81  8
67  80  8
68  86  8
68  87  8
69  88  8
69  89  8
70  84  8
71  83  8
72  91  8
72  92  8
73  93  8
73  94  8
74  79  8
75  79  8
76  82  8
77  82  8
78  95  8
78  96  8
80  85  8
81  85  8
83  90  8
84  90  8
86  98  8
87  97  8
88  100  8
89  99  8
91  102  8
92  101  8
93  105  8
94  104  8
95  108  8
96  107  8
97  103  8
98  103  8
99  106  8

$$$$
