129630523
  -OEChem-09132010272D

114119  0     1  0  0  0  0  0999 V2000
    8.4345   -1.3562    0.0000 O   0  0  0  0  0  0  0  0  0  0  0  0
    7.1993   -0.4946    0.0000 O   0  0  0  0  0  0  0  0  0  0  0  0
    8.7818    0.6134    0.0000 O   0  0  0  0  0  0  0  0  0  0  0  0
    7.2497    1.8990    0.0000 O   0  0  0  0  0  0  0  0  0  0  0  0
   10.8295   -0.6270    0.0000 O   0  0  0  0  0  0  0  0  0  0  0  0
   10.0170   -0.4946    0.0000 O   0  0  0  0  0  0  0  0  0  0  0  0
    9.2818    0.7954    0.0000 O   0  0  0  0  0  0  0  0  0  0  0  0
   10.2319   -1.9087    0.0000 O   0  0  0  0  0  0  0  0  0  0  0  0
    5.9680    2.4967    0.0000 O   0  0  0  0  0  0  0  0  0  0  0  0
    5.4484   -0.0255    0.0000 O   0  0  0  0  0  0  0  0  0  0  0  0
   12.1933    0.0119    0.0000 O   0  0  0  0  0  0  0  0  0  0  0  0
    9.1607    1.4260    0.0000 O   0  0  0  0  0  0  0  0  0  0  0  0
   10.9830   -4.1374    0.0000 O   0  0  0  0  0  0  0  0  0  0  0  0
    7.5189   -4.1374    0.0000 O   0  0  0  0  0  0  0  0  0  0  0  0
   10.0741    4.1374    0.0000 O   0  0  0  0  0  0  0  0  0  0  0  0
    6.6100    4.1374    0.0000 O   0  0  0  0  0  0  0  0  0  0  0  0
   13.3013   -0.3676    0.0000 O   0  0  0  0  0  0  0  0  0  0  0  0
   12.1165   -3.6227    0.0000 O   0  0  0  0  0  0  0  0  0  0  0  0
    9.2509   -5.1374    0.0000 O   0  0  0  0  0  0  0  0  0  0  0  0
    8.3421    5.1374    0.0000 O   0  0  0  0  0  0  0  0  0  0  0  0
   13.6486   -2.3371    0.0000 O   0  0  0  0  0  0  0  0  0  0  0  0
    3.3100    3.2890    0.0000 O   0  0  0  0  0  0  0  0  0  0  0  0
    7.0346   -3.2634    0.0000 O   0  0  0  0  0  0  0  0  0  0  0  0
    3.3100   -0.1751    0.0000 O   0  0  0  0  0  0  0  0  0  0  0  0
    3.7794   -2.0782    0.0000 O   0  0  0  0  0  0  0  0  0  0  0  0
   14.6824    1.8395    0.0000 O   0  0  0  0  0  0  0  0  0  0  0  0
   12.0287    4.0662    0.0000 O   0  0  0  0  0  0  0  0  0  0  0  0
    2.3100    1.5570    0.0000 O   0  0  0  0  0  0  0  0  0  0  0  0
    5.0649   -3.6105    0.0000 O   0  0  0  0  0  0  0  0  0  0  0  0
   13.9984    3.7188    0.0000 O   0  0  0  0  0  0  0  0  0  0  0  0
    8.6081   -0.3714    0.0000 C   0  0  2  0  0  0  0  0  0  0  0  0
    7.8421    0.2714    0.0000 C   0  0  1  0  0  0  0  0  0  0  0  0
    9.5478   -0.0294    0.0000 C   0  0  1  0  0  0  0  0  0  0  0  0
    7.0760    0.9142    0.0000 C   0  0  0  0  0  0  0  0  0  0  0  0
   10.4875    0.3127    0.0000 C   0  0  1  0  0  0  0  0  0  0  0  0
    9.2509   -1.1374    0.0000 C   0  0  0  0  0  0  0  0  0  0  0  0
    8.3421    1.1374    0.0000 C   0  0  0  0  0  0  0  0  0  0  0  0
    9.8898   -0.9691    0.0000 C   0  0  0  0  0  0  0  0  0  0  0  0
    6.3100    1.5570    0.0000 C   0  0  0  0  0  0  0  0  0  0  0  0
    6.4333    0.1481    0.0000 C   0  0  0  0  0  0  0  0  0  0  0  0
   11.4272    0.6547    0.0000 C   0  0  0  0  0  0  0  0  0  0  0  0
    9.2509   -2.1374    0.0000 C   0  0  0  0  0  0  0  0  0  0  0  0
   10.1455    1.2524    0.0000 C   0  0  0  0  0  0  0  0  0  0  0  0
    8.3421    2.1374    0.0000 C   0  0  0  0  0  0  0  0  0  0  0  0
   10.8295   -1.3111    0.0000 C   0  0  0  0  0  0  0  0  0  0  0  0
    5.3100    1.5570    0.0000 C   0  0  0  0  0  0  0  0  0  0  0  0
    6.0912   -0.7915    0.0000 C   0  0  0  0  0  0  0  0  0  0  0  0
   12.0700    1.4207    0.0000 C   0  0  0  0  0  0  0  0  0  0  0  0
    8.3849   -2.6374    0.0000 C   0  0  0  0  0  0  0  0  0  0  0  0
   10.1169   -2.6374    0.0000 C   0  0  0  0  0  0  0  0  0  0  0  0
    7.4761    2.6374    0.0000 C   0  0  0  0  0  0  0  0  0  0  0  0
    9.2081    2.6374    0.0000 C   0  0  0  0  0  0  0  0  0  0  0  0
   11.0032   -2.2959    0.0000 C   0  0  0  0  0  0  0  0  0  0  0  0
   11.5956   -0.6684    0.0000 C   0  0  0  0  0  0  0  0  0  0  0  0
    4.8100    0.6910    0.0000 C   0  0  0  0  0  0  0  0  0  0  0  0
    5.1063   -0.9651    0.0000 C   0  0  0  0  0  0  0  0  0  0  0  0
    4.8100    2.4230    0.0000 C   0  0  0  0  0  0  0  0  0  0  0  0
    6.7340   -1.5576    0.0000 C   0  0  0  0  0  0  0  0  0  0  0  0
   11.7280    2.3604    0.0000 C   0  0  0  0  0  0  0  0  0  0  0  0
   13.0548    1.2471    0.0000 C   0  0  0  0  0  0  0  0  0  0  0  0
   10.1169   -3.6374    0.0000 C   0  0  0  0  0  0  0  0  0  0  0  0
    8.3849   -3.6374    0.0000 C   0  0  0  0  0  0  0  0  0  0  0  0
    9.2081    3.6374    0.0000 C   0  0  0  0  0  0  0  0  0  0  0  0
    7.4761    3.6374    0.0000 C   0  0  0  0  0  0  0  0  0  0  0  0
   12.5353   -1.0104    0.0000 C   0  0  0  0  0  0  0  0  0  0  0  0
   11.9429   -2.6379    0.0000 C   0  0  0  0  0  0  0  0  0  0  0  0
    9.2509   -4.1374    0.0000 C   0  0  0  0  0  0  0  0  0  0  0  0
    8.3421    4.1374    0.0000 C   0  0  0  0  0  0  0  0  0  0  0  0
   12.7089   -1.9951    0.0000 C   0  0  0  0  0  0  0  0  0  0  0  0
    3.8100    2.4230    0.0000 C   0  0  0  0  0  0  0  0  0  0  0  0
    6.3919   -2.4973    0.0000 C   0  0  0  0  0  0  0  0  0  0  0  0
    3.8100    0.6910    0.0000 C   0  0  0  0  0  0  0  0  0  0  0  0
    4.7642   -1.9047    0.0000 C   0  0  0  0  0  0  0  0  0  0  0  0
   13.6976    2.0131    0.0000 C   0  0  0  0  0  0  0  0  0  0  0  0
   12.3708    3.1265    0.0000 C   0  0  0  0  0  0  0  0  0  0  0  0
    3.3100    1.5570    0.0000 C   0  0  0  0  0  0  0  0  0  0  0  0
    5.4070   -2.6708    0.0000 C   0  0  0  0  0  0  0  0  0  0  0  0
   13.3556    2.9528    0.0000 C   0  0  0  0  0  0  0  0  0  0  0  0
    7.8519   -1.5682    0.0000 H   0  0  0  0  0  0  0  0  0  0  0  0
    7.4113   -1.0772    0.0000 H   0  0  0  0  0  0  0  0  0  0  0  0
    8.3832    0.1385    0.0000 H   0  0  0  0  0  0  0  0  0  0  0  0
   10.5440    1.7273    0.0000 H   0  0  0  0  0  0  0  0  0  0  0  0
    6.7747    2.2975    0.0000 H   0  0  0  0  0  0  0  0  0  0  0  0
   11.3045   -1.0256    0.0000 H   0  0  0  0  0  0  0  0  0  0  0  0
    7.8480   -2.3274    0.0000 H   0  0  0  0  0  0  0  0  0  0  0  0
   10.6539   -2.3274    0.0000 H   0  0  0  0  0  0  0  0  0  0  0  0
    6.9391    2.3274    0.0000 H   0  0  0  0  0  0  0  0  0  0  0  0
    9.7451    2.3274    0.0000 H   0  0  0  0  0  0  0  0  0  0  0  0
   10.5282   -2.6944    0.0000 H   0  0  0  0  0  0  0  0  0  0  0  0
   11.4879   -0.0578    0.0000 H   0  0  0  0  0  0  0  0  0  0  0  0
    5.1200    0.1540    0.0000 H   0  0  0  0  0  0  0  0  0  0  0  0
    4.7078   -0.4901    0.0000 H   0  0  0  0  0  0  0  0  0  0  0  0
    5.1200    2.9599    0.0000 H   0  0  0  0  0  0  0  0  0  0  0  0
    7.3446   -1.4499    0.0000 H   0  0  0  0  0  0  0  0  0  0  0  0
   11.1174    2.4681    0.0000 H   0  0  0  0  0  0  0  0  0  0  0  0
   13.2669    0.6645    0.0000 H   0  0  0  0  0  0  0  0  0  0  0  0
   10.9830   -4.7574    0.0000 H   0  0  0  0  0  0  0  0  0  0  0  0
    7.5189   -4.7574    0.0000 H   0  0  0  0  0  0  0  0  0  0  0  0
   10.0741    4.7574    0.0000 H   0  0  0  0  0  0  0  0  0  0  0  0
    6.6100    4.7574    0.0000 H   0  0  0  0  0  0  0  0  0  0  0  0
   13.1937    0.2429    0.0000 H   0  0  0  0  0  0  0  0  0  0  0  0
   12.6991   -3.8348    0.0000 H   0  0  0  0  0  0  0  0  0  0  0  0
    8.7140   -5.4474    0.0000 H   0  0  0  0  0  0  0  0  0  0  0  0
    7.8052    5.4474    0.0000 H   0  0  0  0  0  0  0  0  0  0  0  0
   14.1236   -1.9386    0.0000 H   0  0  0  0  0  0  0  0  0  0  0  0
    3.6200    3.8260    0.0000 H   0  0  0  0  0  0  0  0  0  0  0  0
    7.6452   -3.1558    0.0000 H   0  0  0  0  0  0  0  0  0  0  0  0
    2.6900   -0.1751    0.0000 H   0  0  0  0  0  0  0  0  0  0  0  0
    3.5673   -2.6608    0.0000 H   0  0  0  0  0  0  0  0  0  0  0  0
   14.8945    1.2569    0.0000 H   0  0  0  0  0  0  0  0  0  0  0  0
   12.4273    4.5411    0.0000 H   0  0  0  0  0  0  0  0  0  0  0  0
    2.0000    2.0939    0.0000 H   0  0  0  0  0  0  0  0  0  0  0  0
    5.4634   -4.0855    0.0000 H   0  0  0  0  0  0  0  0  0  0  0  0
   14.6089    3.6112    0.0000 H   0  0  0  0  0  0  0  0  0  0  0  0
 31  1  1  6  0  0  0
  1 79  1  0  0  0  0
 32  2  1  1  0  0  0
  2 80  1  0  0  0  0
 33  3  1  1  0  0  0
  3 81  1  0  0  0  0
  4 34  1  0  0  0  0
  4 83  1  0  0  0  0
 35  5  1  6  0  0  0
  5 84  1  0  0  0  0
  6 36  2  0  0  0  0
  7 37  2  0  0  0  0
  8 38  2  0  0  0  0
  9 39  2  0  0  0  0
 10 40  2  0  0  0  0
 11 41  2  0  0  0  0
 12 43  2  0  0  0  0
 13 61  1  0  0  0  0
 13 97  1  0  0  0  0
 14 62  1  0  0  0  0
 14 98  1  0  0  0  0
 15 63  1  0  0  0  0
 15 99  1  0  0  0  0
 16 64  1  0  0  0  0
 16100  1  0  0  0  0
 17 65  1  0  0  0  0
 17101  1  0  0  0  0
 18 66  1  0  0  0  0
 18102  1  0  0  0  0
 19 67  1  0  0  0  0
 19103  1  0  0  0  0
 20 68  1  0  0  0  0
 20104  1  0  0  0  0
 21 69  1  0  0  0  0
 21105  1  0  0  0  0
 22 70  1  0  0  0  0
 22106  1  0  0  0  0
 23 71  1  0  0  0  0
 23107  1  0  0  0  0
 24 72  1  0  0  0  0
 24108  1  0  0  0  0
 25 73  1  0  0  0  0
 25109  1  0  0  0  0
 26 74  1  0  0  0  0
 26110  1  0  0  0  0
 27 75  1  0  0  0  0
 27111  1  0  0  0  0
 28 76  1  0  0  0  0
 28112  1  0  0  0  0
 29 77  1  0  0  0  0
 29113  1  0  0  0  0
 30 78  1  0  0  0  0
 30114  1  0  0  0  0
 31 32  1  0  0  0  0
 31 33  1  0  0  0  0
 31 36  1  0  0  0  0
 32 34  1  0  0  0  0
 32 37  1  0  0  0  0
 33 35  1  0  0  0  0
 33 38  1  0  0  0  0
 34 39  1  0  0  0  0
 34 40  1  0  0  0  0
 35 41  1  0  0  0  0
 35 43  1  0  0  0  0
 36 42  1  0  0  0  0
 37 44  1  0  0  0  0
 38 45  1  0  0  0  0
 39 46  1  0  0  0  0
 40 47  1  0  0  0  0
 41 48  1  0  0  0  0
 42 49  2  0  0  0  0
 42 50  1  0  0  0  0
 43 82  1  0  0  0  0
 44 51  2  0  0  0  0
 44 52  1  0  0  0  0
 45 53  2  0  0  0  0
 45 54  1  0  0  0  0
 46 55  2  0  0  0  0
 46 57  1  0  0  0  0
 47 56  2  0  0  0  0
 47 58  1  0  0  0  0
 48 59  2  0  0  0  0
 48 60  1  0  0  0  0
 49 62  1  0  0  0  0
 49 85  1  0  0  0  0
 50 61  2  0  0  0  0
 50 86  1  0  0  0  0
 51 64  1  0  0  0  0
 51 87  1  0  0  0  0
 52 63  2  0  0  0  0
 52 88  1  0  0  0  0
 53 66  1  0  0  0  0
 53 89  1  0  0  0  0
 54 65  2  0  0  0  0
 54 90  1  0  0  0  0
 55 72  1  0  0  0  0
 55 91  1  0  0  0  0
 56 73  1  0  0  0  0
 56 92  1  0  0  0  0
 57 70  2  0  0  0  0
 57 93  1  0  0  0  0
 58 71  2  0  0  0  0
 58 94  1  0  0  0  0
 59 75  1  0  0  0  0
 59 95  1  0  0  0  0
 60 74  2  0  0  0  0
 60 96  1  0  0  0  0
 61 67  1  0  0  0  0
 62 67  2  0  0  0  0
 63 68  1  0  0  0  0
 64 68  2  0  0  0  0
 65 69  1  0  0  0  0
 66 69  2  0  0  0  0
 70 76  1  0  0  0  0
 71 77  1  0  0  0  0
 72 76  2  0  0  0  0
 73 77  2  0  0  0  0
 74 78  1  0  0  0  0
 75 78  2  0  0  0  0
M  END
> <PUBCHEM_COMPOUND_CID>
129630523

> <PUBCHEM_COMPOUND_CANONICALIZED>
1

> <PUBCHEM_CACTVS_COMPLEXITY>
2150

> <PUBCHEM_CACTVS_HBOND_ACCEPTOR>
30

> <PUBCHEM_CACTVS_HBOND_DONOR>
23

> <PUBCHEM_CACTVS_ROTATABLE_BOND>
17

> <PUBCHEM_CACTVS_SUBSKEYS>
AAADcfB8PgAAAAAAAAAAAAAAAAAAAAAAAAAwYMGDAAAAAAABVAAAGgAACAAADESgmAIwBoAAAgCIAqhSgAICAAAkIAAAiAFGiMgJJzaKFRKAcQEl4BUJmYfL7vTuoAABCAAAQABAAAIQAACAAAAAAAAAAA==

> <PUBCHEM_IUPAC_OPENEYE_NAME>
(2R,3S,4S,5S)-2,3,4,5,6-pentahydroxy-7-oxo-2,3,4,5,6-pentakis(3,4,5-trihydroxybenzoyl)-7-(3,4,5-trihydroxyphenyl)heptanal

> <PUBCHEM_IUPAC_CAS_NAME>
(2R,3S,4S,5S)-2,3,4,5,6-pentahydroxy-7-oxo-2,3,4,5,6-pentakis[oxo-(3,4,5-trihydroxyphenyl)methyl]-7-(3,4,5-trihydroxyphenyl)heptanal

> <PUBCHEM_IUPAC_NAME_MARKUP>
(2<I>R</I>,3<I>S</I>,4<I>S</I>,5<I>S</I>)-2,3,4,5,6-pentahydroxy-7-oxo-2,3,4,5,6-pentakis(3,4,5-trihydroxybenzoyl)-7-(3,4,5-trihydroxyphenyl)heptanal

> <PUBCHEM_IUPAC_NAME>
(2R,3S,4S,5S)-2,3,4,5,6-pentahydroxy-7-oxo-2,3,4,5,6-pentakis(3,4,5-trihydroxybenzoyl)-7-(3,4,5-trihydroxyphenyl)heptanal

> <PUBCHEM_IUPAC_SYSTEMATIC_NAME>
(2R,3S,4S,5S)-2,3,4,5,6-pentakis(oxidanyl)-7-oxidanylidene-7-[3,4,5-tris(oxidanyl)phenyl]-2,3,4,5,6-pentakis[[3,4,5-tris(oxidanyl)phenyl]carbonyl]heptanal

> <PUBCHEM_IUPAC_TRADITIONAL_NAME>
(2R,3S,4S,5S)-2,3,4,5,6-pentagalloyl-2,3,4,5,6-pentahydroxy-7-keto-7-(3,4,5-trihydroxyphenyl)enanthaldehyde

> <PUBCHEM_IUPAC_INCHI>
InChI=1S/C48H36O30/c49-13-44(74,38(68)14-1-20(50)32(62)21(51)2-14)46(76,41(71)17-7-26(56)35(65)27(57)8-17)48(78,43(73)19-11-30(60)37(67)31(61)12-19)47(77,42(72)18-9-28(58)36(66)29(59)10-18)45(75,39(69)15-3-22(52)33(63)23(53)4-15)40(70)16-5-24(54)34(64)25(55)6-16/h1-13,50-67,74-78H/t44-,46-,47-,48+/m1/s1

> <PUBCHEM_IUPAC_INCHIKEY>
AGXNCMSMGJUERA-LUAHJADVSA-N

> <PUBCHEM_XLOGP3_AA>
-2

> <PUBCHEM_EXACT_MASS>
1092.12914

> <PUBCHEM_MOLECULAR_FORMULA>
C48H36O30

> <PUBCHEM_MOLECULAR_WEIGHT>
1092.8

> <PUBCHEM_OPENEYE_CAN_SMILES>
C1=C(C=C(C(=C1O)O)O)C(=O)C(C=O)(C(C(=O)C2=CC(=C(C(=C2)O)O)O)(C(C(=O)C3=CC(=C(C(=C3)O)O)O)(C(C(=O)C4=CC(=C(C(=C4)O)O)O)(C(C(=O)C5=CC(=C(C(=C5)O)O)O)(C(=O)C6=CC(=C(C(=C6)O)O)O)O)O)O)O)O

> <PUBCHEM_OPENEYE_ISO_SMILES>
C1=C(C=C(C(=C1O)O)O)C(=O)[C@](C=O)([C@](C(=O)C2=CC(=C(C(=C2)O)O)O)([C@@](C(=O)C3=CC(=C(C(=C3)O)O)O)([C@@](C(=O)C4=CC(=C(C(=C4)O)O)O)(C(C(=O)C5=CC(=C(C(=C5)O)O)O)(C(=O)C6=CC(=C(C(=C6)O)O)O)O)O)O)O)O

> <PUBCHEM_CACTVS_TPSA>
585

> <PUBCHEM_MONOISOTOPIC_WEIGHT>
1092.12914

> <PUBCHEM_TOTAL_CHARGE>
0

> <PUBCHEM_HEAVY_ATOM_COUNT>
78

> <PUBCHEM_ATOM_DEF_STEREO_COUNT>
4

> <PUBCHEM_ATOM_UDEF_STEREO_COUNT>
0

> <PUBCHEM_BOND_DEF_STEREO_COUNT>
0

> <PUBCHEM_BOND_UDEF_STEREO_COUNT>
0

> <PUBCHEM_ISOTOPIC_ATOM_COUNT>
0

> <PUBCHEM_COMPONENT_COUNT>
1

> <PUBCHEM_CACTVS_TAUTO_COUNT>
-1

> <PUBCHEM_COORDINATE_TYPE>
1
5
255

> <PUBCHEM_BONDANNOTATIONS>
31  1  6
32  2  5
33  3  5
42  49  8
42  50  8
44  51  8
44  52  8
45  53  8
45  54  8
46  55  8
46  57  8
47  56  8
47  58  8
48  59  8
48  60  8
49  62  8
35  5  6
50  61  8
51  64  8
52  63  8
53  66  8
54  65  8
55  72  8
56  73  8
57  70  8
58  71  8
59  75  8
60  74  8
61  67  8
62  67  8
63  68  8
64  68  8
65  69  8
66  69  8
70  76  8
71  77  8
72  76  8
73  77  8
74  78  8
75  78  8

$$$$
