54085664
  -OEChem-09132011422D

144151  0     1  0  0  0  0  0999 V2000
    8.7331   -0.6962    0.0000 O   0  0  0  0  0  0  0  0  0  0  0  0
    8.0098   -1.0962    0.0000 O   0  0  0  0  0  0  0  0  0  0  0  0
    7.7331    1.0359    0.0000 O   0  0  0  0  0  0  0  0  0  0  0  0
    9.5991   -0.1962    0.0000 O   0  0  0  0  0  0  0  0  0  0  0  0
    9.4651    2.0359    0.0000 O   0  0  0  0  0  0  0  0  0  0  0  0
    7.4670    1.4967    0.0000 O   0  0  0  0  0  0  0  0  0  0  0  0
    5.5162   -0.6565    0.0000 O   0  0  0  0  0  0  0  0  0  0  0  0
   10.8312    1.6698    0.0000 O   0  0  0  0  0  0  0  0  0  0  0  0
    6.8671    2.2679    0.0000 O   0  0  0  0  0  0  0  0  0  0  0  0
    5.0162   -0.1378    0.0000 O   0  0  0  0  0  0  0  0  0  0  0  0
   10.2331    0.1698    0.0000 O   0  0  0  0  0  0  0  0  0  0  0  0
    6.8018   -2.5358    0.0000 O   0  0  0  0  0  0  0  0  0  0  0  0
    6.9407   -1.3062    0.0000 O   0  0  0  0  0  0  0  0  0  0  0  0
    7.9067    3.0207    0.0000 O   0  0  0  0  0  0  0  0  0  0  0  0
   11.6619    2.3394    0.0000 O   0  0  0  0  0  0  0  0  0  0  0  0
    9.0083    4.5661    0.0000 O   0  0  0  0  0  0  0  0  0  0  0  0
    8.2331   -3.8302    0.0000 O   0  0  0  0  0  0  0  0  0  0  0  0
    4.9922   -4.0962    0.0000 O   0  0  0  0  0  0  0  0  0  0  0  0
   10.9779    4.2188    0.0000 O   0  0  0  0  0  0  0  0  0  0  0  0
    6.5010   -4.8302    0.0000 O   0  0  0  0  0  0  0  0  0  0  0  0
   13.3766    1.7714    0.0000 O   0  0  0  0  0  0  0  0  0  0  0  0
   12.1918   -1.4838    0.0000 O   0  0  0  0  0  0  0  0  0  0  0  0
    3.3671   -0.3302    0.0000 O   0  0  0  0  0  0  0  0  0  0  0  0
    3.3671    3.1340    0.0000 O   0  0  0  0  0  0  0  0  0  0  0  0
   13.7239   -0.1982    0.0000 O   0  0  0  0  0  0  0  0  0  0  0  0
    2.3671    1.4019    0.0000 O   0  0  0  0  0  0  0  0  0  0  0  0
   12.7179   -2.6019    0.0000 O   0  0  0  0  0  0  0  0  0  0  0  0
   10.0595   -4.2791    0.0000 O   0  0  0  0  0  0  0  0  0  0  0  0
   10.6678   -3.7679    0.0000 O   0  0  0  0  0  0  0  0  0  0  0  0
    7.6679   -5.5000    0.0000 O   0  0  0  0  0  0  0  0  0  0  0  0
    3.9271   -3.9038    0.0000 O   0  0  0  0  0  0  0  0  0  0  0  0
    2.5369   -0.9641    0.0000 O   0  0  0  0  0  0  0  0  0  0  0  0
   11.7331   -4.1603    0.0000 O   0  0  0  0  0  0  0  0  0  0  0  0
    9.6678   -5.5000    0.0000 O   0  0  0  0  0  0  0  0  0  0  0  0
    2.5369   -2.9641    0.0000 O   0  0  0  0  0  0  0  0  0  0  0  0
    7.7331    5.5000    0.0000 O   0  0  0  0  0  0  0  0  0  0  0  0
    4.7331    3.7680    0.0000 O   0  0  0  0  0  0  0  0  0  0  0  0
    5.7331    5.5000    0.0000 O   0  0  0  0  0  0  0  0  0  0  0  0
    8.2331    0.1698    0.0000 C   0  0  1  0  0  0  0  0  0  0  0  0
    7.3671   -0.3302    0.0000 C   0  0  1  0  0  0  0  0  0  0  0  0
    9.0991    0.6698    0.0000 C   0  0  1  0  0  0  0  0  0  0  0  0
    6.8671    0.5359    0.0000 C   0  0  1  0  0  0  0  0  0  0  0  0
    8.4067    1.1546    0.0000 C   0  0  0  0  0  0  0  0  0  0  0  0
    6.5010   -0.8302    0.0000 C   0  0  0  0  0  0  0  0  0  0  0  0
    8.5991    1.5359    0.0000 C   0  0  0  0  0  0  0  0  0  0  0  0
    9.9651    1.1698    0.0000 C   0  0  0  0  0  0  0  0  0  0  0  0
    6.3671    1.4019    0.0000 C   0  0  0  0  0  0  0  0  0  0  0  0
    6.0010    0.0359    0.0000 C   0  0  0  0  0  0  0  0  0  0  0  0
    9.0495    1.9207    0.0000 C   0  0  0  0  0  0  0  0  0  0  0  0
    6.5010   -1.8302    0.0000 C   0  0  0  0  0  0  0  0  0  0  0  0
   10.9048    0.8278    0.0000 C   0  0  0  0  0  0  0  0  0  0  0  0
    5.3671    1.4019    0.0000 C   0  0  0  0  0  0  0  0  0  0  0  0
    9.7331   -0.6962    0.0000 C   0  0  0  0  0  0  0  0  0  0  0  0
    7.6679   -2.0359    0.0000 C   0  0  0  0  0  0  0  0  0  0  0  0
    6.0010   -0.9641    0.0000 C   0  0  0  0  0  0  0  0  0  0  0  0
    7.7331    2.0359    0.0000 C   0  0  0  0  0  0  0  0  0  0  0  0
    8.7075    2.8604    0.0000 C   0  0  0  0  0  0  0  0  0  0  0  0
   10.0343    1.7470    0.0000 C   0  0  0  0  0  0  0  0  0  0  0  0
    5.6350   -2.3302    0.0000 C   0  0  0  0  0  0  0  0  0  0  0  0
    7.3671   -2.3302    0.0000 C   0  0  0  0  0  0  0  0  0  0  0  0
   11.0785   -0.1570    0.0000 C   0  0  0  0  0  0  0  0  0  0  0  0
   11.6709    1.4706    0.0000 C   0  0  0  0  0  0  0  0  0  0  0  0
   10.2331   -1.5622    0.0000 C   0  0  0  0  0  0  0  0  0  0  0  0
    8.1678   -2.9019    0.0000 C   0  0  0  0  0  0  0  0  0  0  0  0
    4.8671    2.2679    0.0000 C   0  0  0  0  0  0  0  0  0  0  0  0
    4.8671    0.5359    0.0000 C   0  0  0  0  0  0  0  0  0  0  0  0
    5.1350   -1.4641    0.0000 C   0  0  0  0  0  0  0  0  0  0  0  0
   10.6771    2.5131    0.0000 C   0  0  0  0  0  0  0  0  0  0  0  0
    9.3503    3.6264    0.0000 C   0  0  0  0  0  0  0  0  0  0  0  0
    7.3671   -3.3302    0.0000 C   0  0  0  0  0  0  0  0  0  0  0  0
    5.6350   -3.3302    0.0000 C   0  0  0  0  0  0  0  0  0  0  0  0
    7.2331    2.9019    0.0000 C   0  0  0  0  0  0  0  0  0  0  0  0
   10.3351    3.4528    0.0000 C   0  0  0  0  0  0  0  0  0  0  0  0
    6.5010   -3.8302    0.0000 C   0  0  0  0  0  0  0  0  0  0  0  0
   12.6106    1.1286    0.0000 C   0  0  0  0  0  0  0  0  0  0  0  0
   12.0182   -0.4990    0.0000 C   0  0  0  0  0  0  0  0  0  0  0  0
    3.8671    0.5359    0.0000 C   0  0  0  0  0  0  0  0  0  0  0  0
    3.8671    2.2679    0.0000 C   0  0  0  0  0  0  0  0  0  0  0  0
    9.7331   -2.4282    0.0000 C   0  0  0  0  0  0  0  0  0  0  0  0
   11.2331   -1.5622    0.0000 C   0  0  0  0  0  0  0  0  0  0  0  0
   12.7842    0.1438    0.0000 C   0  0  0  0  0  0  0  0  0  0  0  0
    7.6679   -3.7679    0.0000 C   0  0  0  0  0  0  0  0  0  0  0  0
    9.1678   -2.9019    0.0000 C   0  0  0  0  0  0  0  0  0  0  0  0
    3.3671    1.4019    0.0000 C   0  0  0  0  0  0  0  0  0  0  0  0
    4.2690   -0.9641    0.0000 C   0  0  0  0  0  0  0  0  0  0  0  0
    5.1350   -2.4641    0.0000 C   0  0  0  0  0  0  0  0  0  0  0  0
    6.2331    2.9020    0.0000 C   0  0  0  0  0  0  0  0  0  0  0  0
    7.7331    3.7679    0.0000 C   0  0  0  0  0  0  0  0  0  0  0  0
   11.7331   -2.4282    0.0000 C   0  0  0  0  0  0  0  0  0  0  0  0
   10.2331   -3.2942    0.0000 C   0  0  0  0  0  0  0  0  0  0  0  0
    9.6678   -3.7679    0.0000 C   0  0  0  0  0  0  0  0  0  0  0  0
    8.1678   -4.6339    0.0000 C   0  0  0  0  0  0  0  0  0  0  0  0
    4.2690   -2.9641    0.0000 C   0  0  0  0  0  0  0  0  0  0  0  0
    3.4030   -1.4641    0.0000 C   0  0  0  0  0  0  0  0  0  0  0  0
   11.2331   -3.2942    0.0000 C   0  0  0  0  0  0  0  0  0  0  0  0
    9.1678   -4.6339    0.0000 C   0  0  0  0  0  0  0  0  0  0  0  0
    3.4030   -2.4641    0.0000 C   0  0  0  0  0  0  0  0  0  0  0  0
    7.2331    4.6339    0.0000 C   0  0  0  0  0  0  0  0  0  0  0  0
    5.7331    3.7679    0.0000 C   0  0  0  0  0  0  0  0  0  0  0  0
    6.2331    4.6339    0.0000 C   0  0  0  0  0  0  0  0  0  0  0  0
    8.2891    2.0728    0.0000 H   0  0  0  0  0  0  0  0  0  0  0  0
    8.0622    1.2259    0.0000 H   0  0  0  0  0  0  0  0  0  0  0  0
    9.2891   -0.7331    0.0000 H   0  0  0  0  0  0  0  0  0  0  0  0
    9.4651    2.6559    0.0000 H   0  0  0  0  0  0  0  0  0  0  0  0
    8.0969    2.9680    0.0000 H   0  0  0  0  0  0  0  0  0  0  0  0
   10.2464    1.1644    0.0000 H   0  0  0  0  0  0  0  0  0  0  0  0
    5.0981   -2.0202    0.0000 H   0  0  0  0  0  0  0  0  0  0  0  0
    7.9040   -2.0202    0.0000 H   0  0  0  0  0  0  0  0  0  0  0  0
   10.6035   -0.5555    0.0000 H   0  0  0  0  0  0  0  0  0  0  0  0
   11.5632    2.0812    0.0000 H   0  0  0  0  0  0  0  0  0  0  0  0
    5.1771    2.8049    0.0000 H   0  0  0  0  0  0  0  0  0  0  0  0
    5.1771   -0.0011    0.0000 H   0  0  0  0  0  0  0  0  0  0  0  0
    9.1131   -2.4282    0.0000 H   0  0  0  0  0  0  0  0  0  0  0  0
   11.5431   -1.0253    0.0000 H   0  0  0  0  0  0  0  0  0  0  0  0
    7.0479   -3.7679    0.0000 H   0  0  0  0  0  0  0  0  0  0  0  0
    9.4778   -2.3650    0.0000 H   0  0  0  0  0  0  0  0  0  0  0  0
    4.2690   -0.3441    0.0000 H   0  0  0  0  0  0  0  0  0  0  0  0
    5.6720   -2.7741    0.0000 H   0  0  0  0  0  0  0  0  0  0  0  0
    5.9231    2.3650    0.0000 H   0  0  0  0  0  0  0  0  0  0  0  0
    8.3531    3.7679    0.0000 H   0  0  0  0  0  0  0  0  0  0  0  0
   12.0605    2.8144    0.0000 H   0  0  0  0  0  0  0  0  0  0  0  0
    9.4068    5.0411    0.0000 H   0  0  0  0  0  0  0  0  0  0  0  0
    8.7700   -3.5202    0.0000 H   0  0  0  0  0  0  0  0  0  0  0  0
    5.2043   -4.6788    0.0000 H   0  0  0  0  0  0  0  0  0  0  0  0
   10.7658    4.8014    0.0000 H   0  0  0  0  0  0  0  0  0  0  0  0
    5.9641   -5.1402    0.0000 H   0  0  0  0  0  0  0  0  0  0  0  0
   13.9592    1.5593    0.0000 H   0  0  0  0  0  0  0  0  0  0  0  0
   12.7744   -1.6959    0.0000 H   0  0  0  0  0  0  0  0  0  0  0  0
    2.7471   -0.3302    0.0000 H   0  0  0  0  0  0  0  0  0  0  0  0
    3.6771    3.6709    0.0000 H   0  0  0  0  0  0  0  0  0  0  0  0
   14.1989    0.2003    0.0000 H   0  0  0  0  0  0  0  0  0  0  0  0
    2.0571    1.9388    0.0000 H   0  0  0  0  0  0  0  0  0  0  0  0
   12.9299   -3.1845    0.0000 H   0  0  0  0  0  0  0  0  0  0  0  0
   10.2716   -4.8617    0.0000 H   0  0  0  0  0  0  0  0  0  0  0  0
   10.9778   -4.3049    0.0000 H   0  0  0  0  0  0  0  0  0  0  0  0
    7.9778   -6.0369    0.0000 H   0  0  0  0  0  0  0  0  0  0  0  0
    3.3164   -4.0115    0.0000 H   0  0  0  0  0  0  0  0  0  0  0  0
    2.0000   -1.2741    0.0000 H   0  0  0  0  0  0  0  0  0  0  0  0
   12.3531   -4.1603    0.0000 H   0  0  0  0  0  0  0  0  0  0  0  0
    9.3578   -6.0369    0.0000 H   0  0  0  0  0  0  0  0  0  0  0  0
    2.0000   -2.6541    0.0000 H   0  0  0  0  0  0  0  0  0  0  0  0
    8.3531    5.5000    0.0000 H   0  0  0  0  0  0  0  0  0  0  0  0
    4.4231    3.2311    0.0000 H   0  0  0  0  0  0  0  0  0  0  0  0
    6.0431    6.0369    0.0000 H   0  0  0  0  0  0  0  0  0  0  0  0
 39  1  1  6  0  0  0
  1 53  1  0  0  0  0
 40  2  1  6  0  0  0
  2 54  1  0  0  0  0
 42  3  1  6  0  0  0
  3 56  1  0  0  0  0
 41  4  1  1  0  0  0
  4103  1  0  0  0  0
  5 45  1  0  0  0  0
  5104  1  0  0  0  0
  6 43  2  0  0  0  0
  7 44  2  0  0  0  0
  8 46  2  0  0  0  0
  9 47  2  0  0  0  0
 10 48  2  0  0  0  0
 11 53  2  0  0  0  0
 12 54  2  0  0  0  0
 13 55  2  0  0  0  0
 14 56  2  0  0  0  0
 15 68  1  0  0  0  0
 15121  1  0  0  0  0
 16 69  1  0  0  0  0
 16122  1  0  0  0  0
 17 70  1  0  0  0  0
 17123  1  0  0  0  0
 18 71  1  0  0  0  0
 18124  1  0  0  0  0
 19 73  1  0  0  0  0
 19125  1  0  0  0  0
 20 74  1  0  0  0  0
 20126  1  0  0  0  0
 21 75  1  0  0  0  0
 21127  1  0  0  0  0
 22 76  1  0  0  0  0
 22128  1  0  0  0  0
 23 77  1  0  0  0  0
 23129  1  0  0  0  0
 24 78  1  0  0  0  0
 24130  1  0  0  0  0
 25 81  1  0  0  0  0
 25131  1  0  0  0  0
 26 84  1  0  0  0  0
 26132  1  0  0  0  0
 27 89  1  0  0  0  0
 27133  1  0  0  0  0
 28 90  1  0  0  0  0
 28134  1  0  0  0  0
 29 91  1  0  0  0  0
 29135  1  0  0  0  0
 30 92  1  0  0  0  0
 30136  1  0  0  0  0
 31 93  1  0  0  0  0
 31137  1  0  0  0  0
 32 94  1  0  0  0  0
 32138  1  0  0  0  0
 33 95  1  0  0  0  0
 33139  1  0  0  0  0
 34 96  1  0  0  0  0
 34140  1  0  0  0  0
 35 97  1  0  0  0  0
 35141  1  0  0  0  0
 36 98  1  0  0  0  0
 36142  1  0  0  0  0
 37 99  1  0  0  0  0
 37143  1  0  0  0  0
 38100  1  0  0  0  0
 38144  1  0  0  0  0
 39 40  1  0  0  0  0
 39 41  1  0  0  0  0
 39 43  1  0  0  0  0
 40 42  1  0  0  0  0
 40 44  1  0  0  0  0
 41 45  1  0  0  0  0
 41 46  1  0  0  0  0
 42 47  1  0  0  0  0
 42 48  1  0  0  0  0
 43 49  1  0  0  0  0
 44 50  1  0  0  0  0
 45101  1  0  0  0  0
 45102  1  0  0  0  0
 46 51  1  0  0  0  0
 47 52  1  0  0  0  0
 48 55  1  0  0  0  0
 49 57  2  0  0  0  0
 49 58  1  0  0  0  0
 50 59  2  0  0  0  0
 50 60  1  0  0  0  0
 51 61  2  0  0  0  0
 51 62  1  0  0  0  0
 52 65  2  0  0  0  0
 52 66  1  0  0  0  0
 53 63  1  0  0  0  0
 54 64  1  0  0  0  0
 55 67  1  0  0  0  0
 56 72  1  0  0  0  0
 57 69  1  0  0  0  0
 57105  1  0  0  0  0
 58 68  2  0  0  0  0
 58106  1  0  0  0  0
 59 71  1  0  0  0  0
 59107  1  0  0  0  0
 60 70  2  0  0  0  0
 60108  1  0  0  0  0
 61 76  1  0  0  0  0
 61109  1  0  0  0  0
 62 75  2  0  0  0  0
 62110  1  0  0  0  0
 63 79  2  0  0  0  0
 63 80  1  0  0  0  0
 64 82  2  0  0  0  0
 64 83  1  0  0  0  0
 65 78  1  0  0  0  0
 65111  1  0  0  0  0
 66 77  2  0  0  0  0
 66112  1  0  0  0  0
 67 85  2  0  0  0  0
 67 86  1  0  0  0  0
 68 73  1  0  0  0  0
 69 73  2  0  0  0  0
 70 74  1  0  0  0  0
 71 74  2  0  0  0  0
 72 87  2  0  0  0  0
 72 88  1  0  0  0  0
 75 81  1  0  0  0  0
 76 81  2  0  0  0  0
 77 84  1  0  0  0  0
 78 84  2  0  0  0  0
 79 90  1  0  0  0  0
 79113  1  0  0  0  0
 80 89  2  0  0  0  0
 80114  1  0  0  0  0
 82 92  1  0  0  0  0
 82115  1  0  0  0  0
 83 91  2  0  0  0  0
 83116  1  0  0  0  0
 85 94  1  0  0  0  0
 85117  1  0  0  0  0
 86 93  2  0  0  0  0
 86118  1  0  0  0  0
 87 99  1  0  0  0  0
 87119  1  0  0  0  0
 88 98  2  0  0  0  0
 88120  1  0  0  0  0
 89 95  1  0  0  0  0
 90 95  2  0  0  0  0
 91 96  1  0  0  0  0
 92 96  2  0  0  0  0
 93 97  1  0  0  0  0
 94 97  2  0  0  0  0
 98100  1  0  0  0  0
 99100  2  0  0  0  0
M  END
> <PUBCHEM_COMPOUND_CID>
54085664

> <PUBCHEM_COMPOUND_CANONICALIZED>
1

> <PUBCHEM_CACTVS_COMPLEXITY>
2910

> <PUBCHEM_CACTVS_HBOND_ACCEPTOR>
38

> <PUBCHEM_CACTVS_HBOND_DONOR>
26

> <PUBCHEM_CACTVS_ROTATABLE_BOND>
24

> <PUBCHEM_CACTVS_SUBSKEYS>
AAADcfB8PgAAAAAAAAAAAAAAAAAAAAAAAAAwYMGDAAAAAAABVAAAGgAACAAADESgmAIwDoAABgCIAqDSCAICAAAkIAAAiAFGiMgJNzaKNR6CcQEl4BULuYfL7vzuoAABCAAAQABAAAIQAACAAAAAAAAAAA==

> <PUBCHEM_IUPAC_OPENEYE_NAME>
[(1S,2S,3R,4R)-4-hydroxy-4-(hydroxymethyl)-5-oxo-1-[2-oxo-2-(3,4,5-trihydroxyphenyl)acetyl]-1,2,3-tris(3,4,5-trihydroxybenzoyl)-2,3-bis[(3,4,5-trihydroxybenzoyl)oxy]-5-(3,4,5-trihydroxyphenyl)pentyl] 3,4,5-trihydroxybenzoate

> <PUBCHEM_IUPAC_CAS_NAME>
3,4,5-trihydroxybenzoic acid [(3S,4S,5R,6R)-6-hydroxy-6-(hydroxymethyl)-1,2,7-trioxo-4,5-bis[oxo-(3,4,5-trihydroxyphenyl)methoxy]-3,4,5-tris[oxo-(3,4,5-trihydroxyphenyl)methyl]-1,7-bis(3,4,5-trihydroxyphenyl)heptan-3-yl] ester

> <PUBCHEM_IUPAC_NAME_MARKUP>
[(3<I>S</I>,4<I>S</I>,5<I>R</I>,6<I>R</I>)-6-hydroxy-6-(hydroxymethyl)-1,2,7-trioxo-3,4,5-tris(3,4,5-trihydroxybenzoyl)-4,5-bis[(3,4,5-trihydroxybenzoyl)oxy]-1,7-bis(3,4,5-trihydroxyphenyl)heptan-3-yl] 3,4,5-trihydroxybenzoate

> <PUBCHEM_IUPAC_NAME>
[(3S,4S,5R,6R)-6-hydroxy-6-(hydroxymethyl)-1,2,7-trioxo-3,4,5-tris(3,4,5-trihydroxybenzoyl)-4,5-bis[(3,4,5-trihydroxybenzoyl)oxy]-1,7-bis(3,4,5-trihydroxyphenyl)heptan-3-yl] 3,4,5-trihydroxybenzoate

> <PUBCHEM_IUPAC_SYSTEMATIC_NAME>
[(3S,4S,5R,6R)-6-(hydroxymethyl)-6-oxidanyl-1,2,7-tris(oxidanylidene)-1,7-bis[3,4,5-tris(oxidanyl)phenyl]-3,4,5-tris[[3,4,5-tris(oxidanyl)phenyl]carbonyl]-4,5-bis[[3,4,5-tris(oxidanyl)phenyl]carbonyloxy]heptan-3-yl] 3,4,5-tris(oxidanyl)benzoate

> <PUBCHEM_IUPAC_TRADITIONAL_NAME>
3,4,5-trihydroxybenzoic acid [(1S,2S,3R,4R)-1,2,3-trigalloyl-2,3-digalloyloxy-4-hydroxy-5-keto-1-[2-keto-2-(3,4,5-trihydroxyphenyl)acetyl]-4-methylol-5-(3,4,5-trihydroxyphenyl)pentyl] ester

> <PUBCHEM_IUPAC_INCHI>
InChI=1S/C62H44O38/c63-17-59(97,51(89)19-3-28(66)44(82)29(67)4-19)61(53(91)21-7-32(70)46(84)33(71)8-21,99-57(95)24-13-38(76)49(87)39(77)14-24)62(54(92)22-9-34(72)47(85)35(73)10-22,100-58(96)25-15-40(78)50(88)41(79)16-25)60(52(90)20-5-30(68)45(83)31(69)6-20,98-56(94)23-11-36(74)48(86)37(75)12-23)55(93)42(80)18-1-26(64)43(81)27(65)2-18/h1-16,63-79,81-88,97H,17H2/t59-,60-,61+,62+/m0/s1

> <PUBCHEM_IUPAC_INCHIKEY>
MQGVPIVRNZEEQV-VYARWGHWSA-N

> <PUBCHEM_XLOGP3_AA>
1.3

> <PUBCHEM_EXACT_MASS>
1396.151057

> <PUBCHEM_MOLECULAR_FORMULA>
C62H44O38

> <PUBCHEM_MOLECULAR_WEIGHT>
1397

> <PUBCHEM_OPENEYE_CAN_SMILES>
C1=C(C=C(C(=C1O)O)O)C(=O)C(=O)C(C(=O)C2=CC(=C(C(=C2)O)O)O)(C(C(=O)C3=CC(=C(C(=C3)O)O)O)(C(C(=O)C4=CC(=C(C(=C4)O)O)O)(C(CO)(C(=O)C5=CC(=C(C(=C5)O)O)O)O)OC(=O)C6=CC(=C(C(=C6)O)O)O)OC(=O)C7=CC(=C(C(=C7)O)O)O)OC(=O)C8=CC(=C(C(=C8)O)O)O

> <PUBCHEM_OPENEYE_ISO_SMILES>
C1=C(C=C(C(=C1O)O)O)C(=O)C(=O)[C@@](C(=O)C2=CC(=C(C(=C2)O)O)O)([C@](C(=O)C3=CC(=C(C(=C3)O)O)O)([C@@](C(=O)C4=CC(=C(C(=C4)O)O)O)([C@](CO)(C(=O)C5=CC(=C(C(=C5)O)O)O)O)OC(=O)C6=CC(=C(C(=C6)O)O)O)OC(=O)C7=CC(=C(C(=C7)O)O)O)OC(=O)C8=CC(=C(C(=C8)O)O)O

> <PUBCHEM_CACTVS_TPSA>
707

> <PUBCHEM_MONOISOTOPIC_WEIGHT>
1396.151057

> <PUBCHEM_TOTAL_CHARGE>
0

> <PUBCHEM_HEAVY_ATOM_COUNT>
100

> <PUBCHEM_ATOM_DEF_STEREO_COUNT>
4

> <PUBCHEM_ATOM_UDEF_STEREO_COUNT>
0

> <PUBCHEM_BOND_DEF_STEREO_COUNT>
0

> <PUBCHEM_BOND_UDEF_STEREO_COUNT>
0

> <PUBCHEM_ISOTOPIC_ATOM_COUNT>
0

> <PUBCHEM_COMPONENT_COUNT>
1

> <PUBCHEM_CACTVS_TAUTO_COUNT>
-1

> <PUBCHEM_COORDINATE_TYPE>
1
5
255

> <PUBCHEM_BONDANNOTATIONS>
39  1  6
40  2  6
42  3  6
41  4  5
49  57  8
49  58  8
50  59  8
50  60  8
51  61  8
51  62  8
52  65  8
52  66  8
57  69  8
58  68  8
59  71  8
60  70  8
61  76  8
62  75  8
63  79  8
63  80  8
64  82  8
64  83  8
65  78  8
66  77  8
67  85  8
67  86  8
68  73  8
69  73  8
70  74  8
71  74  8
72  87  8
72  88  8
75  81  8
76  81  8
77  84  8
78  84  8
79  90  8
80  89  8
82  92  8
83  91  8
85  94  8
86  93  8
87  99  8
88  98  8
89  95  8
90  95  8
91  96  8
92  96  8
93  97  8
94  97  8
98  100  8
99  100  8

$$$$
