13888120
  -OEChem-09132011252D

 84 88  0     1  0  0  0  0  0999 V2000
    8.5991    1.0000    0.0000 O   0  0  0  0  0  0  0  0  0  0  0  0
    6.8671   -1.0000    0.0000 O   0  0  0  0  0  0  0  0  0  0  0  0
    8.5991   -2.0000    0.0000 O   0  0  0  0  0  0  0  0  0  0  0  0
   10.3312   -1.0000    0.0000 O   0  0  0  0  0  0  0  0  0  0  0  0
   10.3312    1.0000    0.0000 O   0  0  0  0  0  0  0  0  0  0  0  0
    6.8671    2.0000    0.0000 O   0  0  0  0  0  0  0  0  0  0  0  0
    6.0010    0.5000    0.0000 O   0  0  0  0  0  0  0  0  0  0  0  0
    6.8671   -2.0000    0.0000 O   0  0  0  0  0  0  0  0  0  0  0  0
   11.1972    0.5000    0.0000 O   0  0  0  0  0  0  0  0  0  0  0  0
    5.1350    2.0000    0.0000 O   0  0  0  0  0  0  0  0  0  0  0  0
    4.2690   -3.5000    0.0000 O   0  0  0  0  0  0  0  0  0  0  0  0
    2.5369   -0.5000    0.0000 O   0  0  0  0  0  0  0  0  0  0  0  0
    9.4651   -5.5000    0.0000 O   0  0  0  0  0  0  0  0  0  0  0  0
    6.0010   -5.5000    0.0000 O   0  0  0  0  0  0  0  0  0  0  0  0
   14.6613   -0.5000    0.0000 O   0  0  0  0  0  0  0  0  0  0  0  0
   12.9292   -3.5000    0.0000 O   0  0  0  0  0  0  0  0  0  0  0  0
    2.5369   -2.5000    0.0000 O   0  0  0  0  0  0  0  0  0  0  0  0
    7.7331   -6.5000    0.0000 O   0  0  0  0  0  0  0  0  0  0  0  0
   14.6613   -2.5000    0.0000 O   0  0  0  0  0  0  0  0  0  0  0  0
    4.2690    5.5000    0.0000 O   0  0  0  0  0  0  0  0  0  0  0  0
    7.7331    5.5000    0.0000 O   0  0  0  0  0  0  0  0  0  0  0  0
    6.0010    6.5000    0.0000 O   0  0  0  0  0  0  0  0  0  0  0  0
    7.7331   -0.5000    0.0000 C   0  0  1  0  0  0  0  0  0  0  0  0
    8.5991   -1.0000    0.0000 C   0  0  1  0  0  0  0  0  0  0  0  0
    7.7331    0.5000    0.0000 C   0  0  1  0  0  0  0  0  0  0  0  0
    9.4651   -0.5000    0.0000 C   0  0  2  0  0  0  0  0  0  0  0  0
    9.4651    0.5000    0.0000 C   0  0  1  0  0  0  0  0  0  0  0  0
    6.8671    1.0000    0.0000 C   0  0  0  0  0  0  0  0  0  0  0  0
    6.0010   -0.5000    0.0000 C   0  0  0  0  0  0  0  0  0  0  0  0
    7.7331   -2.5000    0.0000 C   0  0  0  0  0  0  0  0  0  0  0  0
   11.1972   -0.5000    0.0000 C   0  0  0  0  0  0  0  0  0  0  0  0
    5.1350   -1.0000    0.0000 C   0  0  0  0  0  0  0  0  0  0  0  0
    7.7331   -3.5000    0.0000 C   0  0  0  0  0  0  0  0  0  0  0  0
    6.0010    2.5000    0.0000 C   0  0  0  0  0  0  0  0  0  0  0  0
   12.0632   -1.0000    0.0000 C   0  0  0  0  0  0  0  0  0  0  0  0
    6.0010    3.5000    0.0000 C   0  0  0  0  0  0  0  0  0  0  0  0
    4.2690   -0.5000    0.0000 C   0  0  0  0  0  0  0  0  0  0  0  0
    5.1350   -2.0000    0.0000 C   0  0  0  0  0  0  0  0  0  0  0  0
    6.8671   -4.0000    0.0000 C   0  0  0  0  0  0  0  0  0  0  0  0
    8.5991   -4.0000    0.0000 C   0  0  0  0  0  0  0  0  0  0  0  0
   12.0632   -2.0000    0.0000 C   0  0  0  0  0  0  0  0  0  0  0  0
   12.9292   -0.5000    0.0000 C   0  0  0  0  0  0  0  0  0  0  0  0
    4.2690   -2.5000    0.0000 C   0  0  0  0  0  0  0  0  0  0  0  0
    3.4030   -1.0000    0.0000 C   0  0  0  0  0  0  0  0  0  0  0  0
    8.5991   -5.0000    0.0000 C   0  0  0  0  0  0  0  0  0  0  0  0
    6.8671   -5.0000    0.0000 C   0  0  0  0  0  0  0  0  0  0  0  0
   13.7953   -1.0000    0.0000 C   0  0  0  0  0  0  0  0  0  0  0  0
   12.9292   -2.5000    0.0000 C   0  0  0  0  0  0  0  0  0  0  0  0
    6.8671    4.0000    0.0000 C   0  0  0  0  0  0  0  0  0  0  0  0
    5.1350    4.0000    0.0000 C   0  0  0  0  0  0  0  0  0  0  0  0
    3.4030   -2.0000    0.0000 C   0  0  0  0  0  0  0  0  0  0  0  0
    7.7331   -5.5000    0.0000 C   0  0  0  0  0  0  0  0  0  0  0  0
   13.7953   -2.0000    0.0000 C   0  0  0  0  0  0  0  0  0  0  0  0
    5.1350    5.0000    0.0000 C   0  0  0  0  0  0  0  0  0  0  0  0
    6.8671    5.0000    0.0000 C   0  0  0  0  0  0  0  0  0  0  0  0
    6.0010    5.5000    0.0000 C   0  0  0  0  0  0  0  0  0  0  0  0
    7.7331   -1.1200    0.0000 H   0  0  0  0  0  0  0  0  0  0  0  0
    9.1360   -1.3100    0.0000 H   0  0  0  0  0  0  0  0  0  0  0  0
    7.7331    1.1200    0.0000 H   0  0  0  0  0  0  0  0  0  0  0  0
    9.4651   -1.1200    0.0000 H   0  0  0  0  0  0  0  0  0  0  0  0
   10.0021    0.1900    0.0000 H   0  0  0  0  0  0  0  0  0  0  0  0
    6.2565    1.1077    0.0000 H   0  0  0  0  0  0  0  0  0  0  0  0
    6.6550    0.4174    0.0000 H   0  0  0  0  0  0  0  0  0  0  0  0
   10.3312    1.6200    0.0000 H   0  0  0  0  0  0  0  0  0  0  0  0
    4.2690    0.1200    0.0000 H   0  0  0  0  0  0  0  0  0  0  0  0
    5.6720   -2.3100    0.0000 H   0  0  0  0  0  0  0  0  0  0  0  0
    6.3301   -3.6900    0.0000 H   0  0  0  0  0  0  0  0  0  0  0  0
    9.1360   -3.6900    0.0000 H   0  0  0  0  0  0  0  0  0  0  0  0
   11.5263   -2.3100    0.0000 H   0  0  0  0  0  0  0  0  0  0  0  0
   12.9292    0.1200    0.0000 H   0  0  0  0  0  0  0  0  0  0  0  0
    7.4040    3.6900    0.0000 H   0  0  0  0  0  0  0  0  0  0  0  0
    4.5981    3.6900    0.0000 H   0  0  0  0  0  0  0  0  0  0  0  0
    3.7320   -3.8100    0.0000 H   0  0  0  0  0  0  0  0  0  0  0  0
    2.5369    0.1200    0.0000 H   0  0  0  0  0  0  0  0  0  0  0  0
   10.0021   -5.1900    0.0000 H   0  0  0  0  0  0  0  0  0  0  0  0
    6.0010   -6.1200    0.0000 H   0  0  0  0  0  0  0  0  0  0  0  0
   14.6613    0.1200    0.0000 H   0  0  0  0  0  0  0  0  0  0  0  0
   13.4662   -3.8100    0.0000 H   0  0  0  0  0  0  0  0  0  0  0  0
    2.0000   -2.1900    0.0000 H   0  0  0  0  0  0  0  0  0  0  0  0
    8.2700   -6.8100    0.0000 H   0  0  0  0  0  0  0  0  0  0  0  0
   15.1982   -2.1900    0.0000 H   0  0  0  0  0  0  0  0  0  0  0  0
    3.7320    5.1900    0.0000 H   0  0  0  0  0  0  0  0  0  0  0  0
    7.7331    6.1200    0.0000 H   0  0  0  0  0  0  0  0  0  0  0  0
    5.4641    6.8100    0.0000 H   0  0  0  0  0  0  0  0  0  0  0  0
  1 25  1  0  0  0  0
  1 27  1  0  0  0  0
 23  2  1  6  0  0  0
  2 29  1  0  0  0  0
 24  3  1  1  0  0  0
  3 30  1  0  0  0  0
 26  4  1  6  0  0  0
  4 31  1  0  0  0  0
 27  5  1  1  0  0  0
  5 64  1  0  0  0  0
  6 28  1  0  0  0  0
  6 34  1  0  0  0  0
  7 29  2  0  0  0  0
  8 30  2  0  0  0  0
  9 31  2  0  0  0  0
 10 34  2  0  0  0  0
 11 43  1  0  0  0  0
 11 73  1  0  0  0  0
 12 44  1  0  0  0  0
 12 74  1  0  0  0  0
 13 45  1  0  0  0  0
 13 75  1  0  0  0  0
 14 46  1  0  0  0  0
 14 76  1  0  0  0  0
 15 47  1  0  0  0  0
 15 77  1  0  0  0  0
 16 48  1  0  0  0  0
 16 78  1  0  0  0  0
 17 51  1  0  0  0  0
 17 79  1  0  0  0  0
 18 52  1  0  0  0  0
 18 80  1  0  0  0  0
 19 53  1  0  0  0  0
 19 81  1  0  0  0  0
 20 54  1  0  0  0  0
 20 82  1  0  0  0  0
 21 55  1  0  0  0  0
 21 83  1  0  0  0  0
 22 56  1  0  0  0  0
 22 84  1  0  0  0  0
 23 24  1  0  0  0  0
 23 25  1  0  0  0  0
 23 57  1  0  0  0  0
 24 26  1  0  0  0  0
 24 58  1  0  0  0  0
 25 28  1  1  0  0  0
 25 59  1  0  0  0  0
 26 27  1  0  0  0  0
 26 60  1  0  0  0  0
 27 61  1  0  0  0  0
 28 62  1  0  0  0  0
 28 63  1  0  0  0  0
 29 32  1  0  0  0  0
 30 33  1  0  0  0  0
 31 35  1  0  0  0  0
 32 37  2  0  0  0  0
 32 38  1  0  0  0  0
 33 39  2  0  0  0  0
 33 40  1  0  0  0  0
 34 36  1  0  0  0  0
 35 41  2  0  0  0  0
 35 42  1  0  0  0  0
 36 49  2  0  0  0  0
 36 50  1  0  0  0  0
 37 44  1  0  0  0  0
 37 65  1  0  0  0  0
 38 43  2  0  0  0  0
 38 66  1  0  0  0  0
 39 46  1  0  0  0  0
 39 67  1  0  0  0  0
 40 45  2  0  0  0  0
 40 68  1  0  0  0  0
 41 48  1  0  0  0  0
 41 69  1  0  0  0  0
 42 47  2  0  0  0  0
 42 70  1  0  0  0  0
 43 51  1  0  0  0  0
 44 51  2  0  0  0  0
 45 52  1  0  0  0  0
 46 52  2  0  0  0  0
 47 53  1  0  0  0  0
 48 53  2  0  0  0  0
 49 55  1  0  0  0  0
 49 71  1  0  0  0  0
 50 54  2  0  0  0  0
 50 72  1  0  0  0  0
 54 56  1  0  0  0  0
 55 56  2  0  0  0  0
M  END
> <PUBCHEM_COMPOUND_CID>
13888120

> <PUBCHEM_COMPOUND_CANONICALIZED>
1

> <PUBCHEM_CACTVS_COMPLEXITY>
1340

> <PUBCHEM_CACTVS_HBOND_ACCEPTOR>
22

> <PUBCHEM_CACTVS_HBOND_DONOR>
13

> <PUBCHEM_CACTVS_ROTATABLE_BOND>
13

> <PUBCHEM_CACTVS_SUBSKEYS>
AAADceB8PgAAAAAAAAAAAAAAAAAAAAAAAAA0YMGCAAAAAAABVAAAGgAACAAADBSwmAMwDoAABgCIAiDSCAACAAAkIAAAiAEGiMgZNzKCNRqCcQElwBUPuYfK7DzOIAABCAAAQABAAAIQAACAAAAAAAAAAA==

> <PUBCHEM_IUPAC_OPENEYE_NAME>
[(2R,3R,4S,5R,6R)-6-hydroxy-3,4,5-tris[(3,4,5-trihydroxybenzoyl)oxy]tetrahydropyran-2-yl]methyl 3,4,5-trihydroxybenzoate

> <PUBCHEM_IUPAC_CAS_NAME>
3,4,5-trihydroxybenzoic acid [(2R,3R,4S,5R,6R)-6-hydroxy-3,4,5-tris[oxo-(3,4,5-trihydroxyphenyl)methoxy]-2-oxanyl]methyl ester

> <PUBCHEM_IUPAC_NAME_MARKUP>
[(2<I>R</I>,3<I>R</I>,4<I>S</I>,5<I>R</I>,6<I>R</I>)-6-hydroxy-3,4,5-tris[(3,4,5-trihydroxybenzoyl)oxy]oxan-2-yl]methyl 3,4,5-trihydroxybenzoate

> <PUBCHEM_IUPAC_NAME>
[(2R,3R,4S,5R,6R)-6-hydroxy-3,4,5-tris[(3,4,5-trihydroxybenzoyl)oxy]oxan-2-yl]methyl 3,4,5-trihydroxybenzoate

> <PUBCHEM_IUPAC_SYSTEMATIC_NAME>
[(2R,3R,4S,5R,6R)-6-oxidanyl-3,4,5-tris[[3,4,5-tris(oxidanyl)phenyl]carbonyloxy]oxan-2-yl]methyl 3,4,5-tris(oxidanyl)benzoate

> <PUBCHEM_IUPAC_TRADITIONAL_NAME>
3,4,5-trihydroxybenzoic acid [(2R,3R,4S,5R,6R)-3,4,5-trigalloyloxy-6-hydroxy-tetrahydropyran-2-yl]methyl ester

> <PUBCHEM_IUPAC_INCHI>
InChI=1S/C34H28O22/c35-14-1-10(2-15(36)23(14)43)30(47)52-9-22-27(54-31(48)11-3-16(37)24(44)17(38)4-11)28(55-32(49)12-5-18(39)25(45)19(40)6-12)29(34(51)53-22)56-33(50)13-7-20(41)26(46)21(42)8-13/h1-8,22,27-29,34-46,51H,9H2/t22-,27-,28+,29-,34-/m1/s1

> <PUBCHEM_IUPAC_INCHIKEY>
RJINLRBSXMOGAQ-UEKZKNBCSA-N

> <PUBCHEM_XLOGP3_AA>
1.5

> <PUBCHEM_EXACT_MASS>
788.107223

> <PUBCHEM_MOLECULAR_FORMULA>
C34H28O22

> <PUBCHEM_MOLECULAR_WEIGHT>
788.6

> <PUBCHEM_OPENEYE_CAN_SMILES>
C1=C(C=C(C(=C1O)O)O)C(=O)OCC2C(C(C(C(O2)O)OC(=O)C3=CC(=C(C(=C3)O)O)O)OC(=O)C4=CC(=C(C(=C4)O)O)O)OC(=O)C5=CC(=C(C(=C5)O)O)O

> <PUBCHEM_OPENEYE_ISO_SMILES>
C1=C(C=C(C(=C1O)O)O)C(=O)OC[C@@H]2[C@H]([C@@H]([C@H]([C@@H](O2)O)OC(=O)C3=CC(=C(C(=C3)O)O)O)OC(=O)C4=CC(=C(C(=C4)O)O)O)OC(=O)C5=CC(=C(C(=C5)O)O)O

> <PUBCHEM_CACTVS_TPSA>
377

> <PUBCHEM_MONOISOTOPIC_WEIGHT>
788.107223

> <PUBCHEM_TOTAL_CHARGE>
0

> <PUBCHEM_HEAVY_ATOM_COUNT>
56

> <PUBCHEM_ATOM_DEF_STEREO_COUNT>
5

> <PUBCHEM_ATOM_UDEF_STEREO_COUNT>
0

> <PUBCHEM_BOND_DEF_STEREO_COUNT>
0

> <PUBCHEM_BOND_UDEF_STEREO_COUNT>
0

> <PUBCHEM_ISOTOPIC_ATOM_COUNT>
0

> <PUBCHEM_COMPONENT_COUNT>
1

> <PUBCHEM_CACTVS_TAUTO_COUNT>
-1

> <PUBCHEM_COORDINATE_TYPE>
1
5
255

> <PUBCHEM_BONDANNOTATIONS>
23  2  6
25  28  5
24  3  5
32  37  8
32  38  8
33  39  8
33  40  8
35  41  8
35  42  8
36  49  8
36  50  8
37  44  8
38  43  8
39  46  8
26  4  6
40  45  8
41  48  8
42  47  8
43  51  8
44  51  8
45  52  8
46  52  8
47  53  8
48  53  8
49  55  8
27  5  5
50  54  8
54  56  8
55  56  8

$$$$
