117440
  -OEChem-09082010223D

 51 53  0     1  0  0  0  0  0999 V2000
    0.5145    1.1858    0.5278 O   0  0  0  0  0  0  0  0  0  0  0  0
    2.0057    0.5482   -1.1495 O   0  0  0  0  0  0  0  0  0  0  0  0
   -0.2689    4.7555   -1.3459 O   0  0  0  0  0  0  0  0  0  0  0  0
   -0.9664    4.4095    1.4379 O   0  0  0  0  0  0  0  0  0  0  0  0
    2.1762    3.2442   -1.9923 O   0  0  0  0  0  0  0  0  0  0  0  0
   -0.3437    0.5515    3.0611 O   0  0  0  0  0  0  0  0  0  0  0  0
   -0.4896   -1.7566   -0.8163 O   0  0  0  0  0  0  0  0  0  0  0  0
    3.9849   -3.8650    1.4964 O   0  0  0  0  0  0  0  0  0  0  0  0
   -1.7673   -2.1307   -2.6943 O   0  0  0  0  0  0  0  0  0  0  0  0
    0.4286    3.8830   -0.4557 C   0  0  1  0  0  0  0  0  0  0  0  0
   -0.5746    3.3509    0.5679 C   0  0  1  0  0  0  0  0  0  0  0  0
    1.0628    2.7431   -1.2531 C   0  0  2  0  0  0  0  0  0  0  0  0
    0.0407    2.2187    1.3937 C   0  0  1  0  0  0  0  0  0  0  0  0
    1.5616    1.6301   -0.3315 C   0  0  1  0  0  0  0  0  0  0  0  0
   -0.9778    1.5931    2.3415 C   0  0  0  0  0  0  0  0  0  0  0  0
    2.4867   -0.5544   -0.4984 C   0  0  0  0  0  0  0  0  0  0  0  0
    1.8839   -1.7974   -0.6707 C   0  0  0  0  0  0  0  0  0  0  0  0
    3.5898   -0.4169    0.3399 C   0  0  0  0  0  0  0  0  0  0  0  0
    0.7009   -1.9584   -1.5670 C   0  0  0  0  0  0  0  0  0  0  0  0
    2.3880   -2.9115    0.0005 C   0  0  0  0  0  0  0  0  0  0  0  0
    4.0940   -1.5311    1.0109 C   0  0  0  0  0  0  0  0  0  0  0  0
    3.4932   -2.7782    0.8412 C   0  0  0  0  0  0  0  0  0  0  0  0
   -1.6581   -1.8725   -1.5057 C   0  0  0  0  0  0  0  0  0  0  0  0
   -2.8212   -1.6387   -0.6129 C   0  0  0  0  0  0  0  0  0  0  0  0
   -3.9742   -1.1008   -1.1470 C   0  0  0  0  0  0  0  0  0  0  0  0
   -2.7132   -1.9672    0.7229 C   0  0  0  0  0  0  0  0  0  0  0  0
   -5.0671   -0.8813   -0.3084 C   0  0  0  0  0  0  0  0  0  0  0  0
   -3.8062   -1.7479    1.5614 C   0  0  0  0  0  0  0  0  0  0  0  0
   -4.9831   -1.2050    1.0456 C   0  0  0  0  0  0  0  0  0  0  0  0
    1.2018    4.4905    0.0306 H   0  0  0  0  0  0  0  0  0  0  0  0
   -1.4756    3.0029    0.0481 H   0  0  0  0  0  0  0  0  0  0  0  0
    0.3481    2.3477   -1.9848 H   0  0  0  0  0  0  0  0  0  0  0  0
    0.8845    2.5828    1.9956 H   0  0  0  0  0  0  0  0  0  0  0  0
    2.4027    2.0018    0.2681 H   0  0  0  0  0  0  0  0  0  0  0  0
   -1.8198    1.1570    1.7938 H   0  0  0  0  0  0  0  0  0  0  0  0
   -1.3642    2.3222    3.0594 H   0  0  0  0  0  0  0  0  0  0  0  0
   -0.6710    5.4592   -0.8082 H   0  0  0  0  0  0  0  0  0  0  0  0
   -0.1744    4.7197    1.9091 H   0  0  0  0  0  0  0  0  0  0  0  0
    2.8224    3.6016   -1.3596 H   0  0  0  0  0  0  0  0  0  0  0  0
   -0.0089   -0.0919    2.4130 H   0  0  0  0  0  0  0  0  0  0  0  0
    4.0848    0.5409    0.4703 H   0  0  0  0  0  0  0  0  0  0  0  0
    0.6942   -2.9662   -2.0019 H   0  0  0  0  0  0  0  0  0  0  0  0
    0.7435   -1.2478   -2.4018 H   0  0  0  0  0  0  0  0  0  0  0  0
    1.9184   -3.8837   -0.1291 H   0  0  0  0  0  0  0  0  0  0  0  0
    4.9577   -1.4220    1.6611 H   0  0  0  0  0  0  0  0  0  0  0  0
    3.4494   -4.6428    1.2636 H   0  0  0  0  0  0  0  0  0  0  0  0
   -4.0505   -0.8415   -2.1987 H   0  0  0  0  0  0  0  0  0  0  0  0
   -1.8128   -2.4016    1.1466 H   0  0  0  0  0  0  0  0  0  0  0  0
   -5.9831   -0.4578   -0.7096 H   0  0  0  0  0  0  0  0  0  0  0  0
   -3.7417   -2.0015    2.6156 H   0  0  0  0  0  0  0  0  0  0  0  0
   -5.8340   -1.0343    1.6985 H   0  0  0  0  0  0  0  0  0  0  0  0
  1 13  1  0  0  0  0
  1 14  1  0  0  0  0
  2 14  1  0  0  0  0
  2 16  1  0  0  0  0
  3 10  1  0  0  0  0
  3 37  1  0  0  0  0
  4 11  1  0  0  0  0
  4 38  1  0  0  0  0
  5 12  1  0  0  0  0
  5 39  1  0  0  0  0
  6 15  1  0  0  0  0
  6 40  1  0  0  0  0
  7 19  1  0  0  0  0
  7 23  1  0  0  0  0
  8 22  1  0  0  0  0
  8 46  1  0  0  0  0
  9 23  2  0  0  0  0
 10 11  1  0  0  0  0
 10 12  1  0  0  0  0
 10 30  1  0  0  0  0
 11 13  1  0  0  0  0
 11 31  1  0  0  0  0
 12 14  1  0  0  0  0
 12 32  1  0  0  0  0
 13 15  1  0  0  0  0
 13 33  1  0  0  0  0
 14 34  1  0  0  0  0
 15 35  1  0  0  0  0
 15 36  1  0  0  0  0
 16 17  2  0  0  0  0
 16 18  1  0  0  0  0
 17 19  1  0  0  0  0
 17 20  1  0  0  0  0
 18 21  2  0  0  0  0
 18 41  1  0  0  0  0
 19 42  1  0  0  0  0
 19 43  1  0  0  0  0
 20 22  2  0  0  0  0
 20 44  1  0  0  0  0
 21 22  1  0  0  0  0
 21 45  1  0  0  0  0
 23 24  1  0  0  0  0
 24 25  2  0  0  0  0
 24 26  1  0  0  0  0
 25 27  1  0  0  0  0
 25 47  1  0  0  0  0
 26 28  2  0  0  0  0
 26 48  1  0  0  0  0
 27 29  2  0  0  0  0
 27 49  1  0  0  0  0
 28 29  1  0  0  0  0
 28 50  1  0  0  0  0
 29 51  1  0  0  0  0
M  END
> <PUBCHEM_COMPOUND_CID>
117440

> <PUBCHEM_CONFORMER_RMSD>
1

> <PUBCHEM_CONFORMER_DIVERSEORDER>
1
368
226
258
56
114
92
247
322
343
316
117
101
163
182
152
371
19
166
314
331
201
158
338
205
283
36
304
119
170
144
292
270
300
41
242
135
109
186
168
145
298
305
102
299
199
31
57
274
289
218
357
8
78
111
257
25
48
188
382
2
385
259
351
38
60
76
237
162
294
67
321
308
97
355
326
47
317
180
149
365
313
288
130
103
211
235
37
196
61
178
227
264
83
349
151
253
98
62
80
194
4
82
175
126
334
330
183
384
105
18
224
10
53
380
244
23
254
250
277
146
212
171
6
164
5
84
353
336
345
229
315
303
295
167
367
95
79
96
366
312
28
379
173
223
287
27
198
179
22
354
26
306
266
63
24
132
9
216
263
346
108
318
333
265
185
243
373
262
281
358
361
143
256
195
133
245
43
81
49
71
222
141
157
107
190
73
332
204
142
207
376
140
42
359
203
3
113
342
215
348
137
21
239
374
360
340
291
91
181
136
284
325
234
191
125
29
296
70
106
268
11
213
14
33
276
255
219
328
238
154
327
280
363
309
329
251
104
90
278
225
246
311
12
290
88
16
51
369
208
69
275
261
35
233
86
52
139
66
177
217
131
15
77
341
269
307
17
356
293
93
192
124
150
210
32
200
118
129
161
377
138
110
40
286
45
302
115
7
209
148
184
271
87
352
99
337
39
75
50
279
94
64
153
285
54
301
174
46
320
378
375
273
335
123
339
172
122
30
220
350
232
272
121
381
147
65
58
20
347
155
85
228
240
128
370
13
236
267
310
169
44
372
324
230
176
112
231
55
72
248
362
260
189
319
34
100
364
297
383
323
282
249
252
116
74
127
156
221
160
59
197
206
120
89
202
187
214
159
344
68
193
134
165
241

> <PUBCHEM_MMFF94_PARTIAL_CHARGES>
42
1 -0.56
10 0.28
11 0.28
12 0.28
13 0.28
14 0.56
15 0.28
16 0.08
17 -0.14
18 -0.15
19 0.42
2 -0.36
20 -0.15
21 -0.15
22 0.08
23 0.63
24 0.09
25 -0.15
26 -0.15
27 -0.15
28 -0.15
29 -0.15
3 -0.68
37 0.4
38 0.4
39 0.4
4 -0.68
40 0.4
41 0.15
44 0.15
45 0.15
46 0.45
47 0.15
48 0.15
49 0.15
5 -0.68
50 0.15
51 0.15
6 -0.68
7 -0.43
8 -0.53
9 -0.57

> <PUBCHEM_EFFECTIVE_ROTOR_COUNT>
8.2

> <PUBCHEM_PHARMACOPHORE_FEATURES>
15
1 1 acceptor
1 2 acceptor
1 3 acceptor
1 3 donor
1 4 acceptor
1 4 donor
1 5 acceptor
1 5 donor
1 6 acceptor
1 6 donor
1 8 donor
1 9 acceptor
6 1 10 11 12 13 14 rings
6 16 17 18 20 21 22 rings
6 24 25 26 27 28 29 rings

> <PUBCHEM_HEAVY_ATOM_COUNT>
29

> <PUBCHEM_ATOM_DEF_STEREO_COUNT>
5

> <PUBCHEM_ATOM_UDEF_STEREO_COUNT>
0

> <PUBCHEM_BOND_DEF_STEREO_COUNT>
0

> <PUBCHEM_BOND_UDEF_STEREO_COUNT>
0

> <PUBCHEM_ISOTOPIC_ATOM_COUNT>
0

> <PUBCHEM_COMPONENT_COUNT>
1

> <PUBCHEM_CACTVS_TAUTO_COUNT>
3

> <PUBCHEM_CONFORMER_ID>
0001CAC000000001

> <PUBCHEM_MMFF94_ENERGY>
88.53

> <PUBCHEM_FEATURE_SELFOVERLAP>
76.187

> <PUBCHEM_SHAPE_FINGERPRINT>
10074138 170 17541352680202091730
10165383 225 17395591935303804239
10688039 33 18337384938004150279
11456790 92 18334580097728773179
11720765 8 18335974333569337433
11828532 37 13181372555117958811
12156800 1 17184977893327955427
12160290 23 17910954643370691694
12422481 6 17842014190894542299
12788726 201 18339365145714191762
13004483 165 18339347561949004074
13965767 371 17489027037436942599
14866123 147 17036963729430714922
151778 21 17903927991228309973
15297060 5 16555416334293152363
19319366 153 17763758976085696113
19734167 9 17340701699125968066
20465049 17 17623319433859173471
21315764 21 18266446776375029853
24893989 43 15094904210070668760
35225 105 17405670745963267531
474144 1 18198639893915232289
484985 159 17029083598477373602
513202 73 17981051816941426550

> <PUBCHEM_SHAPE_MULTIPOLES>
543.98
7.5
5.94
2.23
6.61
6.58
-0.43
-8.02
-1.5
-3.72
0.19
0.57
0.32
-2.14

> <PUBCHEM_SHAPE_SELFOVERLAP>
1163.326

> <PUBCHEM_SHAPE_VOLUME>
298.1

> <PUBCHEM_COORDINATE_TYPE>
2
5
10

$$$$
