101371233
  -OEChem-09082009482D

185192  0     1  0  0  0  0  0999 V2000
    5.0175    0.4778    0.0000 O   0  0  0  0  0  0  0  0  0  0  0  0
    5.0096    2.5261    0.0000 O   0  0  0  0  0  0  0  0  0  0  0  0
    7.6849   -5.2261    0.0000 O   0  0  0  0  0  0  0  0  0  0  0  0
    7.7250    5.1672    0.0000 O   0  0  0  0  0  0  0  0  0  0  0  0
    5.4659    3.6720    0.0000 O   0  0  0  0  0  0  0  0  0  0  0  0
    6.4747    5.3341    0.0000 O   0  0  0  0  0  0  0  0  0  0  0  0
    5.9529   -5.2261    0.0000 O   0  0  0  0  0  0  0  0  0  0  0  0
    7.6849   -7.2261    0.0000 O   0  0  0  0  0  0  0  0  0  0  0  0
    9.4570    5.1539    0.0000 O   0  0  0  0  0  0  0  0  0  0  0  0
    5.9529   -8.2261    0.0000 O   0  0  0  0  0  0  0  0  0  0  0  0
    4.2208   -7.2261    0.0000 O   0  0  0  0  0  0  0  0  0  0  0  0
    8.5510   -5.7261    0.0000 O   0  0  0  0  0  0  0  0  0  0  0  0
    4.2208   -4.2261    0.0000 O   0  0  0  0  0  0  0  0  0  0  0  0
    3.3548   -5.7261    0.0000 O   0  0  0  0  0  0  0  0  0  0  0  0
    5.0298   -8.8139    0.0000 O   0  0  0  0  0  0  0  0  0  0  0  0
    9.4170   -8.2261    0.0000 O   0  0  0  0  0  0  0  0  0  0  0  0
   11.1490   -7.2261    0.0000 O   0  0  0  0  0  0  0  0  0  0  0  0
    2.4608   -8.5049    0.0000 O   0  0  0  0  0  0  0  0  0  0  0  0
   11.1490   -5.2261    0.0000 O   0  0  0  0  0  0  0  0  0  0  0  0
    3.1330  -10.5740    0.0000 O   0  0  0  0  0  0  0  0  0  0  0  0
   10.2830   -3.7261    0.0000 O   0  0  0  0  0  0  0  0  0  0  0  0
    6.3031  -10.4694    0.0000 O   0  0  0  0  0  0  0  0  0  0  0  0
    6.7839   -0.5259    0.0000 C   0  0  2  0  0  0  0  0  0  0  0  0
    7.6480   -1.0292    0.0000 C   0  0  1  0  0  0  0  0  0  0  0  0
    6.7877    0.4741    0.0000 C   0  0  1  0  0  0  0  0  0  0  0  0
    7.6600   -2.0708    0.0000 C   0  0  2  0  0  0  0  0  0  0  0  0
    6.7599   -2.5951    0.0000 C   0  0  1  0  0  0  0  0  0  0  0  0
    6.7797    2.5434    0.0000 C   0  0  1  0  0  0  0  0  0  0  0  0
    7.6757    2.0122    0.0000 C   0  0  2  0  0  0  0  0  0  0  0  0
    7.6557    0.9708    0.0000 C   0  0  0  0  0  0  0  0  0  0  0  0
    5.8719   -1.0292    0.0000 C   0  0  0  0  0  0  0  0  0  0  0  0
    5.8797    0.9845    0.0000 C   0  0  2  0  0  0  0  0  0  0  0  0
    5.8599   -2.0708    0.0000 C   0  0  0  0  0  0  0  0  0  0  0  0
    6.7474   -3.6800    0.0000 C   0  0  0  0  0  0  0  0  0  0  0  0
    8.5159   -0.5326    0.0000 C   0  0  0  0  0  0  0  0  0  0  0  0
    5.8757    2.0261    0.0000 C   0  0  1  0  0  0  0  0  0  0  0  0
    8.6099   -2.5951    0.0000 C   0  0  0  0  0  0  0  0  0  0  0  0
    6.7756    3.6284    0.0000 C   0  0  2  0  0  0  0  0  0  0  0  0
    5.7997   -0.3484    0.0000 C   0  0  0  0  0  0  0  0  0  0  0  0
    8.5198    0.4674    0.0000 C   0  0  0  0  0  0  0  0  0  0  0  0
    8.6297    2.5292    0.0000 C   0  0  0  0  0  0  0  0  0  0  0  0
    7.6849   -4.2261    0.0000 C   0  0  2  0  0  0  0  0  0  0  0  0
    5.8022    0.3043    0.0000 C   0  0  0  0  0  0  0  0  0  0  0  0
    8.5241   -1.5674    0.0000 C   0  0  0  0  0  0  0  0  0  0  0  0
    8.6225   -3.6800    0.0000 C   0  0  0  0  0  0  0  0  0  0  0  0
    8.6506    3.6140    0.0000 C   0  0  0  0  0  0  0  0  0  0  0  0
    7.7173    4.1673    0.0000 C   0  0  1  0  0  0  0  0  0  0  0  0
    5.7970    2.7284    0.0000 C   0  0  0  0  0  0  0  0  0  0  0  0
    5.7474   -3.6723    0.0000 C   0  0  0  0  0  0  0  0  0  0  0  0
    6.2407   -4.5421    0.0000 C   0  0  0  0  0  0  0  0  0  0  0  0
    6.1328    4.3944    0.0000 C   0  0  0  0  0  0  0  0  0  0  0  0
    9.6505    3.5985    0.0000 C   0  0  0  0  0  0  0  0  0  0  0  0
    9.1639    4.4722    0.0000 C   0  0  0  0  0  0  0  0  0  0  0  0
    5.4900    5.1605    0.0000 C   0  0  3  0  0  0  0  0  0  0  0  0
    6.8189   -5.7261    0.0000 C   0  0  2  0  0  0  0  0  0  0  0  0
    5.8320    6.1002    0.0000 C   0  0  0  0  0  0  0  0  0  0  0  0
    6.8189   -6.7261    0.0000 C   0  0  1  0  0  0  0  0  0  0  0  0
    4.5052    4.9869    0.0000 C   0  0  0  0  0  0  0  0  0  0  0  0
    8.5948    5.6606    0.0000 C   0  0  0  0  0  0  0  0  0  0  0  0
    5.9529   -7.2261    0.0000 C   0  0  2  0  0  0  0  0  0  0  0  0
    5.0868   -5.7261    0.0000 C   0  0  1  0  0  0  0  0  0  0  0  0
    5.0868   -6.7261    0.0000 C   0  0  1  0  0  0  0  0  0  0  0  0
    5.1892    6.8662    0.0000 C   0  0  0  0  0  0  0  0  0  0  0  0
    8.6026    6.6605    0.0000 C   0  0  0  0  0  0  0  0  0  0  0  0
    8.5510   -6.7261    0.0000 C   0  0  2  0  0  0  0  0  0  0  0  0
    4.2208   -5.2261    0.0000 C   0  0  0  0  0  0  0  0  0  0  0  0
    9.4724    7.1538    0.0000 C   0  0  0  0  0  0  0  0  0  0  0  0
    9.4170   -7.2261    0.0000 C   0  0  1  0  0  0  0  0  0  0  0  0
    4.2208   -8.2261    0.0000 C   0  0  2  0  0  0  0  0  0  0  0  0
    9.4801    8.1538    0.0000 C   0  0  0  0  0  0  0  0  0  0  0  0
   10.3345    6.6472    0.0000 C   0  0  0  0  0  0  0  0  0  0  0  0
   10.2830   -6.7261    0.0000 C   0  0  2  0  0  0  0  0  0  0  0  0
    9.4170   -5.2261    0.0000 C   0  0  1  0  0  0  0  0  0  0  0  0
    3.4118   -8.8139    0.0000 C   0  0  1  0  0  0  0  0  0  0  0  0
   10.2830   -5.7261    0.0000 C   0  0  1  0  0  0  0  0  0  0  0  0
   10.3500    8.6471    0.0000 C   0  0  0  0  0  0  0  0  0  0  0  0
    3.7208   -9.7650    0.0000 C   0  0  2  0  0  0  0  0  0  0  0  0
    4.7208   -9.7650    0.0000 C   0  0  2  0  0  0  0  0  0  0  0  0
    3.3548   -3.7261    0.0000 C   0  0  0  0  0  0  0  0  0  0  0  0
    9.4170   -4.2261    0.0000 C   0  0  0  0  0  0  0  0  0  0  0  0
    5.3086  -10.5740    0.0000 C   0  0  0  0  0  0  0  0  0  0  0  0
   10.3577    9.6471    0.0000 C   0  0  0  0  0  0  0  0  0  0  0  0
   11.2275   10.1404    0.0000 C   0  0  0  0  0  0  0  0  0  0  0  0
   11.2352   11.1404    0.0000 C   0  0  0  0  0  0  0  0  0  0  0  0
   12.0897    9.6337    0.0000 C   0  0  0  0  0  0  0  0  0  0  0  0
    8.3857   -1.4514    0.0000 H   0  0  0  0  0  0  0  0  0  0  0  0
    6.0206   -3.0144    0.0000 H   0  0  0  0  0  0  0  0  0  0  0  0
    8.4018    1.5703    0.0000 H   0  0  0  0  0  0  0  0  0  0  0  0
    5.6696   -0.4431    0.0000 H   0  0  0  0  0  0  0  0  0  0  0  0
    5.2599   -1.1282    0.0000 H   0  0  0  0  0  0  0  0  0  0  0  0
    5.3410    1.2914    0.0000 H   0  0  0  0  0  0  0  0  0  0  0  0
    5.2503   -1.9576    0.0000 H   0  0  0  0  0  0  0  0  0  0  0  0
    5.6441   -2.6520    0.0000 H   0  0  0  0  0  0  0  0  0  0  0  0
    8.7257   -1.1160    0.0000 H   0  0  0  0  0  0  0  0  0  0  0  0
    9.1269   -0.4273    0.0000 H   0  0  0  0  0  0  0  0  0  0  0  0
    5.3393    1.7150    0.0000 H   0  0  0  0  0  0  0  0  0  0  0  0
    9.2220   -2.6941    0.0000 H   0  0  0  0  0  0  0  0  0  0  0  0
    8.8122   -2.0090    0.0000 H   0  0  0  0  0  0  0  0  0  0  0  0
    6.1934    3.4152    0.0000 H   0  0  0  0  0  0  0  0  0  0  0  0
    5.9098    0.2617    0.0000 H   0  0  0  0  0  0  0  0  0  0  0  0
    5.1896   -0.2384    0.0000 H   0  0  0  0  0  0  0  0  0  0  0  0
    5.6897   -0.9586    0.0000 H   0  0  0  0  0  0  0  0  0  0  0  0
    9.0579    0.7754    0.0000 H   0  0  0  0  0  0  0  0  0  0  0  0
    8.8274    1.9415    0.0000 H   0  0  0  0  0  0  0  0  0  0  0  0
    9.2424    2.6235    0.0000 H   0  0  0  0  0  0  0  0  0  0  0  0
    8.2225   -4.5351    0.0000 H   0  0  0  0  0  0  0  0  0  0  0  0
    5.6970    0.9153    0.0000 H   0  0  0  0  0  0  0  0  0  0  0  0
    5.1912    0.1990    0.0000 H   0  0  0  0  0  0  0  0  0  0  0  0
    5.9075   -0.3067    0.0000 H   0  0  0  0  0  0  0  0  0  0  0  0
    8.8362   -2.1032    0.0000 H   0  0  0  0  0  0  0  0  0  0  0  0
    9.0598   -1.2554    0.0000 H   0  0  0  0  0  0  0  0  0  0  0  0
    8.2120   -1.0317    0.0000 H   0  0  0  0  0  0  0  0  0  0  0  0
    8.8382   -4.2612    0.0000 H   0  0  0  0  0  0  0  0  0  0  0  0
    9.2320   -3.5668    0.0000 H   0  0  0  0  0  0  0  0  0  0  0  0
    7.1821    4.4804    0.0000 H   0  0  0  0  0  0  0  0  0  0  0  0
    5.1852    2.6278    0.0000 H   0  0  0  0  0  0  0  0  0  0  0  0
    5.7898    2.1085    0.0000 H   0  0  0  0  0  0  0  0  0  0  0  0
    5.7522   -3.0523    0.0000 H   0  0  0  0  0  0  0  0  0  0  0  0
    5.1274   -3.6675    0.0000 H   0  0  0  0  0  0  0  0  0  0  0  0
    5.7426   -4.2923    0.0000 H   0  0  0  0  0  0  0  0  0  0  0  0
    5.7062   -4.2280    0.0000 H   0  0  0  0  0  0  0  0  0  0  0  0
    5.9266   -5.0767    0.0000 H   0  0  0  0  0  0  0  0  0  0  0  0
    6.7753   -4.8563    0.0000 H   0  0  0  0  0  0  0  0  0  0  0  0
    4.4782    0.7836    0.0000 H   0  0  0  0  0  0  0  0  0  0  0  0
    4.4727    2.2161    0.0000 H   0  0  0  0  0  0  0  0  0  0  0  0
    9.6409    2.9786    0.0000 H   0  0  0  0  0  0  0  0  0  0  0  0
   10.2704    3.5890    0.0000 H   0  0  0  0  0  0  0  0  0  0  0  0
    9.6600    4.2185    0.0000 H   0  0  0  0  0  0  0  0  0  0  0  0
    9.6960    4.1539    0.0000 H   0  0  0  0  0  0  0  0  0  0  0  0
    9.4821    5.0042    0.0000 H   0  0  0  0  0  0  0  0  0  0  0  0
    8.6318    4.7904    0.0000 H   0  0  0  0  0  0  0  0  0  0  0  0
    5.2779    4.5779    0.0000 H   0  0  0  0  0  0  0  0  0  0  0  0
    4.8566    3.7867    0.0000 H   0  0  0  0  0  0  0  0  0  0  0  0
    6.8189   -5.1061    0.0000 H   0  0  0  0  0  0  0  0  0  0  0  0
    6.3689    5.7902    0.0000 H   0  0  0  0  0  0  0  0  0  0  0  0
    6.2305    6.5751    0.0000 H   0  0  0  0  0  0  0  0  0  0  0  0
    6.8189   -7.3461    0.0000 H   0  0  0  0  0  0  0  0  0  0  0  0
    4.3976    5.5975    0.0000 H   0  0  0  0  0  0  0  0  0  0  0  0
    3.8946    4.8793    0.0000 H   0  0  0  0  0  0  0  0  0  0  0  0
    4.6128    4.3763    0.0000 H   0  0  0  0  0  0  0  0  0  0  0  0
    5.4159   -7.5361    0.0000 H   0  0  0  0  0  0  0  0  0  0  0  0
    5.0868   -5.1061    0.0000 H   0  0  0  0  0  0  0  0  0  0  0  0
    4.5499   -6.4161    0.0000 H   0  0  0  0  0  0  0  0  0  0  0  0
    5.6642    7.2648    0.0000 H   0  0  0  0  0  0  0  0  0  0  0  0
    4.7907    7.3412    0.0000 H   0  0  0  0  0  0  0  0  0  0  0  0
    4.7143    6.4677    0.0000 H   0  0  0  0  0  0  0  0  0  0  0  0
    8.0680    6.9746    0.0000 H   0  0  0  0  0  0  0  0  0  0  0  0
    8.0140   -6.4161    0.0000 H   0  0  0  0  0  0  0  0  0  0  0  0
    6.4898   -8.5361    0.0000 H   0  0  0  0  0  0  0  0  0  0  0  0
    9.9539   -7.5361    0.0000 H   0  0  0  0  0  0  0  0  0  0  0  0
    3.6684   -7.9446    0.0000 H   0  0  0  0  0  0  0  0  0  0  0  0
    9.2726    8.7380    0.0000 H   0  0  0  0  0  0  0  0  0  0  0  0
    8.8687    8.0508    0.0000 H   0  0  0  0  0  0  0  0  0  0  0  0
   10.0204    6.1126    0.0000 H   0  0  0  0  0  0  0  0  0  0  0  0
   10.8691    6.3330    0.0000 H   0  0  0  0  0  0  0  0  0  0  0  0
   10.6487    7.1817    0.0000 H   0  0  0  0  0  0  0  0  0  0  0  0
   10.8199   -6.4161    0.0000 H   0  0  0  0  0  0  0  0  0  0  0  0
    8.8800   -4.9161    0.0000 H   0  0  0  0  0  0  0  0  0  0  0  0
    2.9734   -9.2523    0.0000 H   0  0  0  0  0  0  0  0  0  0  0  0
   10.2830   -5.1061    0.0000 H   0  0  0  0  0  0  0  0  0  0  0  0
   10.5575    8.0629    0.0000 H   0  0  0  0  0  0  0  0  0  0  0  0
   10.9614    8.7501    0.0000 H   0  0  0  0  0  0  0  0  0  0  0  0
    3.1085   -9.6680    0.0000 H   0  0  0  0  0  0  0  0  0  0  0  0
    5.3332   -9.6680    0.0000 H   0  0  0  0  0  0  0  0  0  0  0  0
    9.9539   -8.5361    0.0000 H   0  0  0  0  0  0  0  0  0  0  0  0
    3.6648   -3.1892    0.0000 H   0  0  0  0  0  0  0  0  0  0  0  0
    2.8179   -3.4161    0.0000 H   0  0  0  0  0  0  0  0  0  0  0  0
    3.0448   -4.2630    0.0000 H   0  0  0  0  0  0  0  0  0  0  0  0
    9.2049   -3.6435    0.0000 H   0  0  0  0  0  0  0  0  0  0  0  0
    8.8064   -4.3338    0.0000 H   0  0  0  0  0  0  0  0  0  0  0  0
   11.1490   -7.8461    0.0000 H   0  0  0  0  0  0  0  0  0  0  0  0
    2.0000   -8.9197    0.0000 H   0  0  0  0  0  0  0  0  0  0  0  0
   11.6860   -5.5361    0.0000 H   0  0  0  0  0  0  0  0  0  0  0  0
    4.7514  -10.8458    0.0000 H   0  0  0  0  0  0  0  0  0  0  0  0
    5.4795  -11.1699    0.0000 H   0  0  0  0  0  0  0  0  0  0  0  0
    9.8232    9.9612    0.0000 H   0  0  0  0  0  0  0  0  0  0  0  0
    3.3852  -11.1404    0.0000 H   0  0  0  0  0  0  0  0  0  0  0  0
   10.8199   -4.0361    0.0000 H   0  0  0  0  0  0  0  0  0  0  0  0
    6.6676  -10.9710    0.0000 H   0  0  0  0  0  0  0  0  0  0  0  0
   11.8552   11.1356    0.0000 H   0  0  0  0  0  0  0  0  0  0  0  0
   11.2400   11.7603    0.0000 H   0  0  0  0  0  0  0  0  0  0  0  0
   10.6153   11.1451    0.0000 H   0  0  0  0  0  0  0  0  0  0  0  0
   11.7755    9.0992    0.0000 H   0  0  0  0  0  0  0  0  0  0  0  0
   12.6242    9.3196    0.0000 H   0  0  0  0  0  0  0  0  0  0  0  0
   12.4038   10.1683    0.0000 H   0  0  0  0  0  0  0  0  0  0  0  0
 32  1  1  1  0  0  0
  1124  1  0  0  0  0
 36  2  1  1  0  0  0
  2125  1  0  0  0  0
 42  3  1  6  0  0  0
 55  3  1  1  0  0  0
 47  4  1  6  0  0  0
  4 59  1  0  0  0  0
  5 48  1  0  0  0  0
  5133  1  0  0  0  0
  6 51  2  0  0  0  0
  7 55  1  0  0  0  0
  7 61  1  0  0  0  0
 57  8  1  6  0  0  0
 65  8  1  6  0  0  0
  9 59  2  0  0  0  0
 60 10  1  1  0  0  0
 10149  1  0  0  0  0
 62 11  1  6  0  0  0
 69 11  1  6  0  0  0
 12 65  1  0  0  0  0
 12 73  1  0  0  0  0
 13 66  1  0  0  0  0
 13 79  1  0  0  0  0
 14 66  2  0  0  0  0
 15 69  1  0  0  0  0
 15 78  1  0  0  0  0
 68 16  1  1  0  0  0
 16165  1  0  0  0  0
 72 17  1  6  0  0  0
 17171  1  0  0  0  0
 74 18  1  1  0  0  0
 18172  1  0  0  0  0
 75 19  1  1  0  0  0
 19173  1  0  0  0  0
 77 20  1  6  0  0  0
 20177  1  0  0  0  0
 21 80  1  0  0  0  0
 21178  1  0  0  0  0
 22 81  1  0  0  0  0
 22179  1  0  0  0  0
 23 24  1  0  0  0  0
 23 25  1  0  0  0  0
 23 31  1  0  0  0  0
 23 39  1  6  0  0  0
 24 26  1  0  0  0  0
 24 35  1  0  0  0  0
 24 86  1  1  0  0  0
 25 30  1  0  0  0  0
 25 32  1  0  0  0  0
 25 43  1  1  0  0  0
 26 27  1  0  0  0  0
 26 37  1  0  0  0  0
 26 44  1  6  0  0  0
 27 33  1  0  0  0  0
 27 34  1  0  0  0  0
 27 87  1  1  0  0  0
 28 29  1  0  0  0  0
 28 36  1  0  0  0  0
 28 38  1  0  0  0  0
 28 48  1  6  0  0  0
 29 30  1  0  0  0  0
 29 41  1  0  0  0  0
 29 88  1  6  0  0  0
 30 40  2  0  0  0  0
 31 33  1  0  0  0  0
 31 89  1  0  0  0  0
 31 90  1  0  0  0  0
 32 36  1  0  0  0  0
 32 91  1  0  0  0  0
 33 92  1  0  0  0  0
 33 93  1  0  0  0  0
 34 42  1  0  0  0  0
 34 49  1  0  0  0  0
 34 50  1  0  0  0  0
 35 40  1  0  0  0  0
 35 94  1  0  0  0  0
 35 95  1  0  0  0  0
 36 96  1  0  0  0  0
 37 45  1  0  0  0  0
 37 97  1  0  0  0  0
 37 98  1  0  0  0  0
 38 47  1  0  0  0  0
 38 51  1  1  0  0  0
 38 99  1  0  0  0  0
 39100  1  0  0  0  0
 39101  1  0  0  0  0
 39102  1  0  0  0  0
 40103  1  0  0  0  0
 41 46  1  0  0  0  0
 41104  1  0  0  0  0
 41105  1  0  0  0  0
 42 45  1  0  0  0  0
 42106  1  0  0  0  0
 43107  1  0  0  0  0
 43108  1  0  0  0  0
 43109  1  0  0  0  0
 44110  1  0  0  0  0
 44111  1  0  0  0  0
 44112  1  0  0  0  0
 45113  1  0  0  0  0
 45114  1  0  0  0  0
 46 47  1  0  0  0  0
 46 52  1  0  0  0  0
 46 53  1  0  0  0  0
 47115  1  0  0  0  0
 48116  1  0  0  0  0
 48117  1  0  0  0  0
 49118  1  0  0  0  0
 49119  1  0  0  0  0
 49120  1  0  0  0  0
 50121  1  0  0  0  0
 50122  1  0  0  0  0
 50123  1  0  0  0  0
 51 54  1  0  0  0  0
 52126  1  0  0  0  0
 52127  1  0  0  0  0
 52128  1  0  0  0  0
 53129  1  0  0  0  0
 53130  1  0  0  0  0
 53131  1  0  0  0  0
 54 56  1  0  0  0  0
 54 58  1  0  0  0  0
 54132  1  0  0  0  0
 55 57  1  0  0  0  0
 55134  1  0  0  0  0
 56 63  1  0  0  0  0
 56135  1  0  0  0  0
 56136  1  0  0  0  0
 57 60  1  0  0  0  0
 57137  1  0  0  0  0
 58138  1  0  0  0  0
 58139  1  0  0  0  0
 58140  1  0  0  0  0
 59 64  1  0  0  0  0
 60 62  1  0  0  0  0
 60141  1  0  0  0  0
 61 62  1  0  0  0  0
 61 66  1  1  0  0  0
 61142  1  0  0  0  0
 62143  1  0  0  0  0
 63144  1  0  0  0  0
 63145  1  0  0  0  0
 63146  1  0  0  0  0
 64 67  2  0  0  0  0
 64147  1  0  0  0  0
 65 68  1  0  0  0  0
 65148  1  0  0  0  0
 67 70  1  0  0  0  0
 67 71  1  0  0  0  0
 68 72  1  0  0  0  0
 68150  1  0  0  0  0
 69 74  1  0  0  0  0
 69151  1  0  0  0  0
 70 76  1  0  0  0  0
 70152  1  0  0  0  0
 70153  1  0  0  0  0
 71154  1  0  0  0  0
 71155  1  0  0  0  0
 71156  1  0  0  0  0
 72 75  1  0  0  0  0
 72157  1  0  0  0  0
 73 75  1  0  0  0  0
 73 80  1  6  0  0  0
 73158  1  0  0  0  0
 74 77  1  0  0  0  0
 74159  1  0  0  0  0
 75160  1  0  0  0  0
 76 82  1  0  0  0  0
 76161  1  0  0  0  0
 76162  1  0  0  0  0
 77 78  1  0  0  0  0
 77163  1  0  0  0  0
 78 81  1  1  0  0  0
 78164  1  0  0  0  0
 79166  1  0  0  0  0
 79167  1  0  0  0  0
 79168  1  0  0  0  0
 80169  1  0  0  0  0
 80170  1  0  0  0  0
 81174  1  0  0  0  0
 81175  1  0  0  0  0
 82 83  2  0  0  0  0
 82176  1  0  0  0  0
 83 84  1  0  0  0  0
 83 85  1  0  0  0  0
 84180  1  0  0  0  0
 84181  1  0  0  0  0
 84182  1  0  0  0  0
 85183  1  0  0  0  0
 85184  1  0  0  0  0
 85185  1  0  0  0  0
M  END
> <PUBCHEM_COMPOUND_CID>
101371233

> <PUBCHEM_COMPOUND_CANONICALIZED>
1

> <PUBCHEM_CACTVS_COMPLEXITY>
2490

> <PUBCHEM_CACTVS_HBOND_ACCEPTOR>
22

> <PUBCHEM_CACTVS_HBOND_DONOR>
11

> <PUBCHEM_CACTVS_ROTATABLE_BOND>
20

> <PUBCHEM_CACTVS_SUBSKEYS>
AAADcfB8PgAAAAAAAAAAAAAAAAAAASAAAAA0aMGCAAAAAADAAAAAGgAACAAADxSwgAMCCAAABgCIAqDSCAIAAAAgAAAACAFAAEgRFBYAIQQiUAAF4AAPIQPK7PzPgAAAAAAAAADAAAYAADCAAAAAAAAAAA==

> <PUBCHEM_IUPAC_OPENEYE_NAME>
methyl (2S,3S,4S,5R,6R)-6-[[(3S,4aR,6aR,6bS,7R,8S,8aR,9R,10S,12aS,14aR,14bR)-10-[(2E)-3,7-dimethylocta-2,6-dienoyl]oxy-7,8-dihydroxy-8a-(hydroxymethyl)-4,4,6a,6b,11,11,14b-heptamethyl-9-(2-methylbutanoyl)-1,2,3,4a,5,6,7,8,9,10,12,12a,14,14a-tetradecahydropicen-3-yl]oxy]-3-[(2S,3R,4R,5S)-3,4-dihydroxy-5-(hydroxymethyl)tetrahydrofuran-2-yl]oxy-4-hydroxy-5-[(2S,3R,4S,5S,6R)-3,4,5-trihydroxy-6-(hydroxymethyl)tetrahydropyran-2-yl]oxy-tetrahydropyran-2-carboxylate

> <PUBCHEM_IUPAC_CAS_NAME>
(2S,3S,4S,5R,6R)-6-[[(3S,4aR,6aR,6bS,7R,8S,8aR,9R,10S,12aS,14aR,14bR)-10-[(2E)-3,7-dimethyl-1-oxoocta-2,6-dienoxy]-7,8-dihydroxy-8a-(hydroxymethyl)-4,4,6a,6b,11,11,14b-heptamethyl-9-(2-methyl-1-oxobutyl)-1,2,3,4a,5,6,7,8,9,10,12,12a,14,14a-tetradecahydropicen-3-yl]oxy]-3-[[(2S,3R,4R,5S)-3,4-dihydroxy-5-(hydroxymethyl)-2-oxolanyl]oxy]-4-hydroxy-5-[[(2S,3R,4S,5S,6R)-3,4,5-trihydroxy-6-(hydroxymethyl)-2-oxanyl]oxy]-2-oxanecarboxylic acid methyl ester

> <PUBCHEM_IUPAC_NAME_MARKUP>
methyl (2<I>S</I>,3<I>S</I>,4<I>S</I>,5<I>R</I>,6<I>R</I>)-6-[[(3<I>S</I>,4<I>a</I><I>R</I>,6<I>a</I><I>R</I>,6<I>b</I><I>S</I>,7<I>R</I>,8<I>S</I>,8<I>a</I><I>R</I>,9<I>R</I>,10<I>S</I>,12<I>a</I><I>S</I>,14<I>a</I><I>R</I>,14<I>b</I><I>R</I>)-10-[(2<I>E</I>)-3,7-dimethylocta-2,6-dienoyl]oxy-7,8-dihydroxy-8<I>a</I>-(hydroxymethyl)-4,4,6<I>a</I>,6<I>b</I>,11,11,14<I>b</I>-heptamethyl-9-(2-methylbutanoyl)-1,2,3,4<I>a</I>,5,6,7,8,9,10,12,12<I>a</I>,14,14<I>a</I>-tetradecahydropicen-3-yl]oxy]-3-[(2<I>S</I>,3<I>R</I>,4<I>R</I>,5<I>S</I>)-3,4-dihydroxy-5-(hydroxymethyl)oxolan-2-yl]oxy-4-hydroxy-5-[(2<I>S</I>,3<I>R</I>,4<I>S</I>,5<I>S</I>,6<I>R</I>)-3,4,5-trihydroxy-6-(hydroxymethyl)oxan-2-yl]oxyoxane-2-carboxylate

> <PUBCHEM_IUPAC_NAME>
methyl (2S,3S,4S,5R,6R)-6-[[(3S,4aR,6aR,6bS,7R,8S,8aR,9R,10S,12aS,14aR,14bR)-10-[(2E)-3,7-dimethylocta-2,6-dienoyl]oxy-7,8-dihydroxy-8a-(hydroxymethyl)-4,4,6a,6b,11,11,14b-heptamethyl-9-(2-methylbutanoyl)-1,2,3,4a,5,6,7,8,9,10,12,12a,14,14a-tetradecahydropicen-3-yl]oxy]-3-[(2S,3R,4R,5S)-3,4-dihydroxy-5-(hydroxymethyl)oxolan-2-yl]oxy-4-hydroxy-5-[(2S,3R,4S,5S,6R)-3,4,5-trihydroxy-6-(hydroxymethyl)oxan-2-yl]oxyoxane-2-carboxylate

> <PUBCHEM_IUPAC_SYSTEMATIC_NAME>
methyl (2S,3S,4S,5R,6R)-6-[[(3S,4aR,6aR,6bS,7R,8S,8aR,9R,10S,12aS,14aR,14bR)-10-[(2E)-3,7-dimethylocta-2,6-dienoyl]oxy-8a-(hydroxymethyl)-4,4,6a,6b,11,11,14b-heptamethyl-9-(2-methylbutanoyl)-7,8-bis(oxidanyl)-1,2,3,4a,5,6,7,8,9,10,12,12a,14,14a-tetradecahydropicen-3-yl]oxy]-3-[(2S,3R,4R,5S)-5-(hydroxymethyl)-3,4-bis(oxidanyl)oxolan-2-yl]oxy-5-[(2S,3R,4S,5S,6R)-6-(hydroxymethyl)-3,4,5-tris(oxidanyl)oxan-2-yl]oxy-4-oxidanyl-oxane-2-carboxylate

> <PUBCHEM_IUPAC_TRADITIONAL_NAME>
(2S,3S,4S,5R,6R)-6-[[(3S,4aR,6aR,6bS,7R,8S,8aR,9R,10S,12aS,14aR,14bR)-10-[(2E)-3,7-dimethylocta-2,6-dienoyl]oxy-7,8-dihydroxy-4,4,6a,6b,11,11,14b-heptamethyl-9-(2-methylbutanoyl)-8a-methylol-1,2,3,4a,5,6,7,8,9,10,12,12a,14,14a-tetradecahydropicen-3-yl]oxy]-3-[(2S,3R,4R,5S)-3,4-dihydroxy-5-methylol-tetrahydrofuran-2-yl]oxy-4-hydroxy-5-[(2S,3R,4S,5S,6R)-3,4,5-trihydroxy-6-methylol-tetrahydropyran-2-yl]oxy-tetrahydropyran-2-carboxylic acid methyl ester

> <PUBCHEM_IUPAC_INCHI>
InChI=1S/C63H100O22/c1-14-31(5)41(68)40-53(82-39(67)24-30(4)17-15-16-29(2)3)58(6,7)25-33-32-18-19-37-60(10)22-21-38(59(8,9)36(60)20-23-61(37,11)62(32,12)51(75)52(76)63(33,40)28-66)81-57-49(84-56-46(73)44(71)42(69)34(26-64)79-56)47(74)48(50(85-57)54(77)78-13)83-55-45(72)43(70)35(27-65)80-55/h16,18,24,31,33-38,40,42-53,55-57,64-66,69-76H,14-15,17,19-23,25-28H2,1-13H3/b30-24+/t31?,33-,34+,35-,36-,37+,38-,40-,42+,43-,44-,45+,46+,47-,48-,49+,50-,51-,52+,53-,55-,56-,57+,60-,61+,62-,63+/m0/s1

> <PUBCHEM_IUPAC_INCHIKEY>
UXBMNZZPDDMDQB-NWGXVRBZSA-N

> <PUBCHEM_XLOGP3_AA>
5.1

> <PUBCHEM_EXACT_MASS>
1208.670625

> <PUBCHEM_MOLECULAR_FORMULA>
C63H100O22

> <PUBCHEM_MOLECULAR_WEIGHT>
1209.5

> <PUBCHEM_OPENEYE_CAN_SMILES>
CCC(C)C(=O)C1C(C(CC2C1(C(C(C3(C2=CCC4C3(CCC5C4(CCC(C5(C)C)OC6C(C(C(C(O6)C(=O)OC)OC7C(C(C(O7)CO)O)O)O)OC8C(C(C(C(O8)CO)O)O)O)C)C)C)O)O)CO)(C)C)OC(=O)C=C(C)CCC=C(C)C

> <PUBCHEM_OPENEYE_ISO_SMILES>
CCC(C)C(=O)[C@H]1[C@@H](C(C[C@@H]2[C@]1([C@@H]([C@@H]([C@@]3(C2=CC[C@H]4[C@]3(CC[C@@H]5[C@@]4(CC[C@@H](C5(C)C)O[C@H]6[C@@H]([C@H]([C@@H]([C@H](O6)C(=O)OC)O[C@H]7[C@@H]([C@H]([C@@H](O7)CO)O)O)O)O[C@H]8[C@@H]([C@H]([C@@H]([C@H](O8)CO)O)O)O)C)C)C)O)O)CO)(C)C)OC(=O)/C=C(\C)/CCC=C(C)C

> <PUBCHEM_CACTVS_TPSA>
348

> <PUBCHEM_MONOISOTOPIC_WEIGHT>
1208.670625

> <PUBCHEM_TOTAL_CHARGE>
0

> <PUBCHEM_HEAVY_ATOM_COUNT>
85

> <PUBCHEM_ATOM_DEF_STEREO_COUNT>
26

> <PUBCHEM_ATOM_UDEF_STEREO_COUNT>
1

> <PUBCHEM_BOND_DEF_STEREO_COUNT>
1

> <PUBCHEM_BOND_UDEF_STEREO_COUNT>
0

> <PUBCHEM_ISOTOPIC_ATOM_COUNT>
0

> <PUBCHEM_COMPONENT_COUNT>
1

> <PUBCHEM_CACTVS_TAUTO_COUNT>
-1

> <PUBCHEM_COORDINATE_TYPE>
1
5
255

> <PUBCHEM_BONDANNOTATIONS>
32  1  5
60  10  5
62  11  6
69  11  6
68  16  5
72  17  6
74  18  5
75  19  5
36  2  5
77  20  6
23  39  6
24  86  5
25  43  5
26  44  6
27  87  5
28  48  6
29  88  6
42  3  6
55  3  5
38  51  5
47  4  6
54  58  3
61  66  5
73  80  6
78  81  5
57  8  6
65  8  6

$$$$
