102442057
  -OEChem-08252010353D

 53 55  0     1  0  0  0  0  0999 V2000
   -0.0650    0.9500   -0.1472 O   0  0  0  0  0  0  0  0  0  0  0  0
    0.0544   -2.2877    0.1524 O   0  0  0  0  0  0  0  0  0  0  0  0
   -3.6690   -1.9712    1.6455 O   0  0  0  0  0  0  0  0  0  0  0  0
   -4.9622    0.5293    1.1272 O   0  0  0  0  0  0  0  0  0  0  0  0
    4.1242   -0.4713    1.2283 O   0  0  0  0  0  0  0  0  0  0  0  0
    1.5688    1.8418   -1.4875 O   0  0  0  0  0  0  0  0  0  0  0  0
    1.0251   -1.5362   -1.7989 O   0  0  0  0  0  0  0  0  0  0  0  0
   -3.1785    0.8291   -0.3737 N   0  0  0  0  0  0  0  0  0  0  0  0
   -2.1488    0.0135   -0.9657 C   0  0  2  0  0  0  0  0  0  0  0  0
   -2.0286   -1.0969    0.0737 C   0  0  1  0  0  0  0  0  0  0  0  0
   -1.0007    0.9803   -1.2331 C   0  0  1  0  0  0  0  0  0  0  0  0
   -1.6994    2.3475   -1.3500 C   0  0  0  0  0  0  0  0  0  0  0  0
   -3.5212   -1.3218    0.4080 C   0  0  2  0  0  0  0  0  0  0  0  0
   -2.9139    2.2470   -0.4285 C   0  0  0  0  0  0  0  0  0  0  0  0
   -4.0343    0.1154    0.4525 C   0  0  0  0  0  0  0  0  0  0  0  0
   -1.2786   -2.3330   -0.4070 C   0  0  0  0  0  0  0  0  0  0  0  0
    2.2001    0.8792    0.6643 C   0  0  2  0  0  0  0  0  0  0  0  0
    3.0875   -0.3697    0.2217 C   0  0  2  0  0  0  0  0  0  0  0  0
    2.3454   -1.7545    0.2399 C   0  0  1  0  0  0  0  0  0  0  0  0
    1.2189    1.2971   -0.4453 C   0  0  0  0  0  0  0  0  0  0  0  0
    3.0734    2.1363    0.9324 C   0  0  0  0  0  0  0  0  0  0  0  0
    1.4685    0.6034    2.0008 C   0  0  0  0  0  0  0  0  0  0  0  0
    3.8262   -0.1353   -1.1132 C   0  0  0  0  0  0  0  0  0  0  0  0
    1.0841   -1.8246   -0.6121 C   0  0  0  0  0  0  0  0  0  0  0  0
    3.2115   -2.9584   -0.1604 C   0  0  0  0  0  0  0  0  0  0  0  0
    2.2124    3.2909    1.3760 C   0  0  0  0  0  0  0  0  0  0  0  0
   -2.5576   -0.3570   -1.9157 H   0  0  0  0  0  0  0  0  0  0  0  0
   -1.5421   -0.7207    0.9864 H   0  0  0  0  0  0  0  0  0  0  0  0
   -0.4946    0.7087   -2.1669 H   0  0  0  0  0  0  0  0  0  0  0  0
   -2.0460    2.4873   -2.3811 H   0  0  0  0  0  0  0  0  0  0  0  0
   -1.0584    3.1914   -1.0797 H   0  0  0  0  0  0  0  0  0  0  0  0
   -4.0442   -1.8783   -0.3778 H   0  0  0  0  0  0  0  0  0  0  0  0
   -2.6869    2.5917    0.5856 H   0  0  0  0  0  0  0  0  0  0  0  0
   -3.7915    2.7824   -0.8001 H   0  0  0  0  0  0  0  0  0  0  0  0
   -1.7381   -3.2452   -0.0131 H   0  0  0  0  0  0  0  0  0  0  0  0
   -1.2519   -2.4185   -1.4985 H   0  0  0  0  0  0  0  0  0  0  0  0
    2.0655   -1.9557    1.2826 H   0  0  0  0  0  0  0  0  0  0  0  0
    3.8334    1.9437    1.6984 H   0  0  0  0  0  0  0  0  0  0  0  0
    3.6091    2.4434    0.0276 H   0  0  0  0  0  0  0  0  0  0  0  0
    2.1736    0.4954    2.8324 H   0  0  0  0  0  0  0  0  0  0  0  0
    0.8731   -0.3129    1.9586 H   0  0  0  0  0  0  0  0  0  0  0  0
    0.7449    1.3819    2.2644 H   0  0  0  0  0  0  0  0  0  0  0  0
    4.4048    0.7929   -1.0966 H   0  0  0  0  0  0  0  0  0  0  0  0
    3.1497   -0.1054   -1.9701 H   0  0  0  0  0  0  0  0  0  0  0  0
    4.5697   -0.9176   -1.3020 H   0  0  0  0  0  0  0  0  0  0  0  0
   -4.6219   -2.0724    1.8109 H   0  0  0  0  0  0  0  0  0  0  0  0
    2.6523   -3.8914   -0.0212 H   0  0  0  0  0  0  0  0  0  0  0  0
    4.1173   -3.0296    0.4481 H   0  0  0  0  0  0  0  0  0  0  0  0
    3.5003   -2.9211   -1.2159 H   0  0  0  0  0  0  0  0  0  0  0  0
    4.8176   -1.0692    0.9040 H   0  0  0  0  0  0  0  0  0  0  0  0
    1.3538    3.4907    0.7297 H   0  0  0  0  0  0  0  0  0  0  0  0
    2.8187    4.2050    1.3717 H   0  0  0  0  0  0  0  0  0  0  0  0
    1.8608    3.1810    2.4062 H   0  0  0  0  0  0  0  0  0  0  0  0
  1 11  1  0  0  0  0
  1 20  1  0  0  0  0
  2 16  1  0  0  0  0
  2 24  1  0  0  0  0
  3 13  1  0  0  0  0
  3 46  1  0  0  0  0
  4 15  2  0  0  0  0
  5 18  1  0  0  0  0
  5 50  1  0  0  0  0
  6 20  2  0  0  0  0
  7 24  2  0  0  0  0
  8  9  1  0  0  0  0
  8 14  1  0  0  0  0
  8 15  1  0  0  0  0
  9 10  1  0  0  0  0
  9 11  1  0  0  0  0
  9 27  1  0  0  0  0
 10 13  1  0  0  0  0
 10 16  1  0  0  0  0
 10 28  1  0  0  0  0
 11 12  1  0  0  0  0
 11 29  1  0  0  0  0
 12 14  1  0  0  0  0
 12 30  1  0  0  0  0
 12 31  1  0  0  0  0
 13 15  1  0  0  0  0
 13 32  1  0  0  0  0
 14 33  1  0  0  0  0
 14 34  1  0  0  0  0
 16 35  1  0  0  0  0
 16 36  1  0  0  0  0
 17 18  1  0  0  0  0
 17 20  1  0  0  0  0
 17 21  1  0  0  0  0
 17 22  1  0  0  0  0
 18 19  1  0  0  0  0
 18 23  1  0  0  0  0
 19 24  1  0  0  0  0
 19 25  1  0  0  0  0
 19 37  1  0  0  0  0
 21 26  1  0  0  0  0
 21 38  1  0  0  0  0
 21 39  1  0  0  0  0
 22 40  1  0  0  0  0
 22 41  1  0  0  0  0
 22 42  1  0  0  0  0
 23 43  1  0  0  0  0
 23 44  1  0  0  0  0
 23 45  1  0  0  0  0
 25 47  1  0  0  0  0
 25 48  1  0  0  0  0
 25 49  1  0  0  0  0
 26 51  1  0  0  0  0
 26 52  1  0  0  0  0
 26 53  1  0  0  0  0
M  END
> <PUBCHEM_COMPOUND_CID>
102442057

> <PUBCHEM_CONFORMER_RMSD>
0.6

> <PUBCHEM_CONFORMER_DIVERSEORDER>
1
11
13
8
6
12
4
10
9
3
5
7
2

> <PUBCHEM_MMFF94_PARTIAL_CHARGES>
21
1 -0.43
11 0.28
13 0.34
14 0.3
15 0.57
16 0.28
17 0.06
18 0.28
19 0.06
2 -0.43
20 0.66
24 0.66
3 -0.68
4 -0.57
46 0.4
5 -0.68
50 0.4
6 -0.57
7 -0.57
8 -0.66
9 0.3

> <PUBCHEM_EFFECTIVE_ROTOR_COUNT>
2.8

> <PUBCHEM_PHARMACOPHORE_FEATURES>
10
1 26 hydrophobe
1 3 acceptor
1 3 donor
1 4 acceptor
1 5 acceptor
1 5 donor
1 6 acceptor
1 7 acceptor
5 8 9 10 13 15 rings
5 8 9 11 12 14 rings

> <PUBCHEM_HEAVY_ATOM_COUNT>
26

> <PUBCHEM_ATOM_DEF_STEREO_COUNT>
6

> <PUBCHEM_ATOM_UDEF_STEREO_COUNT>
1

> <PUBCHEM_BOND_DEF_STEREO_COUNT>
0

> <PUBCHEM_BOND_UDEF_STEREO_COUNT>
0

> <PUBCHEM_ISOTOPIC_ATOM_COUNT>
0

> <PUBCHEM_COMPONENT_COUNT>
1

> <PUBCHEM_CACTVS_TAUTO_COUNT>
4

> <PUBCHEM_CONFORMER_ID>
061B244900000001

> <PUBCHEM_MMFF94_ENERGY>
89.8182

> <PUBCHEM_FEATURE_SELFOVERLAP>
50.992

> <PUBCHEM_SHAPE_FINGERPRINT>
10064457 181 18201721820212105290
10165383 225 18270125745890947792
10366900 7 18409166623422026623
10675989 125 16463587060525914612
10759866 29 17968667016913084646
10863032 1 18261957319552634774
11552529 35 18058730350785144787
11640471 11 15554441894836981631
12011746 2 18409445847598543231
12035758 1 18342443851818626394
12156800 1 14065217415664944452
12403259 226 18264766571592940279
12422481 6 18121466195438625266
12553582 1 17901108839019426807
12633257 1 18413101753920478507
13140716 1 18266454493682187418
13224815 77 18340760537564532063
13402501 40 18265613187040561767
13533116 47 18341891896891889273
13583140 156 17316163005118727360
13726171 33 18115609057668491148
14178342 30 18050565450029575115
14223421 5 18409444795521316289
14790565 3 17829903383336272004
14866123 147 15819036799524166254
15238133 3 17203621366933671169
1601671 61 18413673500520861486
16945 1 18341035385617896390
17349148 13 18261099821174648687
1813 80 16878235216230434725
20600515 1 17688876337259825996
20691752 17 18040433334553035671
21041028 32 17984985890723909232
21756936 100 17197122373320849304
23559900 14 18187650163284018007
238 59 17911197764104995245
2748010 2 18263630784454760423
350125 39 18410016537083044493
3524813 1 18411980234880231891
49207404 50 18337675346491653515
495365 180 17987496174828923109
5265222 85 18122352539403221988
6287921 2 18121220041508643172
81228 2 16830624425585711544
9709674 26 18338226090300850847

> <PUBCHEM_SHAPE_MULTIPOLES>
489
7.53
3.35
1.51
3.72
0.21
-0.12
-0.38
-2.19
-1.4
-0.16
-0.15
0.4
1.46

> <PUBCHEM_SHAPE_SELFOVERLAP>
1033.628

> <PUBCHEM_SHAPE_VOLUME>
274.4

> <PUBCHEM_COORDINATE_TYPE>
2
5
10

$$$$
