101297661
  -OEChem-08252010343D

 55 57  0     1  0  0  0  0  0999 V2000
   -0.4258   -0.9766    0.2583 O   0  0  0  0  0  0  0  0  0  0  0  0
   -3.7118    1.8068   -2.0316 O   0  0  0  0  0  0  0  0  0  0  0  0
   -0.2680    1.8358    0.7221 O   0  0  0  0  0  0  0  0  0  0  0  0
    3.3105    0.7588   -1.2910 O   0  0  0  0  0  0  0  0  0  0  0  0
    3.0055    2.6413    0.5118 O   0  0  0  0  0  0  0  0  0  0  0  0
    1.1616   -1.8725    1.6732 O   0  0  0  0  0  0  0  0  0  0  0  0
    0.8387    2.4600   -1.1970 O   0  0  0  0  0  0  0  0  0  0  0  0
   -3.7424   -0.8441    0.4034 N   0  0  1  0  0  0  0  0  0  0  0  0
   -2.5813   -0.0527    0.8738 C   0  0  2  0  0  0  0  0  0  0  0  0
   -2.3166    0.9638   -0.2429 C   0  0  1  0  0  0  0  0  0  0  0  0
   -1.4838   -1.0682    1.2224 C   0  0  1  0  0  0  0  0  0  0  0  0
   -3.7307    1.2500   -0.7311 C   0  0  2  0  0  0  0  0  0  0  0  0
   -4.3680   -0.1359   -0.7210 C   0  0  0  0  0  0  0  0  0  0  0  0
   -3.2407   -2.1725    0.0478 C   0  0  0  0  0  0  0  0  0  0  0  0
   -2.1758   -2.4206    1.1048 C   0  0  0  0  0  0  0  0  0  0  0  0
   -1.5591    2.2110    0.2058 C   0  0  0  0  0  0  0  0  0  0  0  0
    1.7951   -0.8629   -0.4511 C   0  0  2  0  0  0  0  0  0  0  0  0
    2.7649    0.2861   -0.0346 C   0  0  2  0  0  0  0  0  0  0  0  0
    2.1007    1.5300    0.6693 C   0  0  2  0  0  0  0  0  0  0  0  0
    0.8382   -1.3133    0.6355 C   0  0  0  0  0  0  0  0  0  0  0  0
    2.4872   -2.1082   -1.0196 C   0  0  0  0  0  0  0  0  0  0  0  0
    0.8363    2.0022   -0.0604 C   0  0  0  0  0  0  0  0  0  0  0  0
    3.9752   -0.2315    0.7649 C   0  0  0  0  0  0  0  0  0  0  0  0
    1.8945    1.3801    2.1852 C   0  0  0  0  0  0  0  0  0  0  0  0
    3.0954   -1.8004   -2.3833 C   0  0  0  0  0  0  0  0  0  0  0  0
    1.5002   -3.2664   -1.1146 C   0  0  0  0  0  0  0  0  0  0  0  0
   -2.9014    0.4602    1.7904 H   0  0  0  0  0  0  0  0  0  0  0  0
   -1.7507    0.5035   -1.0650 H   0  0  0  0  0  0  0  0  0  0  0  0
   -1.0968   -0.9000    2.2340 H   0  0  0  0  0  0  0  0  0  0  0  0
   -4.2564    1.9327   -0.0522 H   0  0  0  0  0  0  0  0  0  0  0  0
   -5.4514   -0.0653   -0.5775 H   0  0  0  0  0  0  0  0  0  0  0  0
   -4.2064   -0.6364   -1.6843 H   0  0  0  0  0  0  0  0  0  0  0  0
   -2.7767   -2.1900   -0.9467 H   0  0  0  0  0  0  0  0  0  0  0  0
   -4.0321   -2.9270    0.0809 H   0  0  0  0  0  0  0  0  0  0  0  0
   -2.6505   -2.6851    2.0576 H   0  0  0  0  0  0  0  0  0  0  0  0
   -1.4982   -3.2274    0.8100 H   0  0  0  0  0  0  0  0  0  0  0  0
   -1.4648    2.9322   -0.6138 H   0  0  0  0  0  0  0  0  0  0  0  0
   -2.0919    2.7163    1.0188 H   0  0  0  0  0  0  0  0  0  0  0  0
    1.1654   -0.4694   -1.2650 H   0  0  0  0  0  0  0  0  0  0  0  0
   -4.6341    1.8766   -2.3315 H   0  0  0  0  0  0  0  0  0  0  0  0
    3.2839   -2.4594   -0.3551 H   0  0  0  0  0  0  0  0  0  0  0  0
    4.6065    0.6023    1.0943 H   0  0  0  0  0  0  0  0  0  0  0  0
    4.6371   -0.8535    0.1534 H   0  0  0  0  0  0  0  0  0  0  0  0
    3.6731   -0.7993    1.6495 H   0  0  0  0  0  0  0  0  0  0  0  0
    1.4853    2.3071    2.6069 H   0  0  0  0  0  0  0  0  0  0  0  0
    1.2090    0.5737    2.4495 H   0  0  0  0  0  0  0  0  0  0  0  0
    2.8430    1.2200    2.7082 H   0  0  0  0  0  0  0  0  0  0  0  0
    2.3961   -1.2716   -3.0394 H   0  0  0  0  0  0  0  0  0  0  0  0
    3.3771   -2.7284   -2.8949 H   0  0  0  0  0  0  0  0  0  0  0  0
    0.5929   -2.9825   -1.6597 H   0  0  0  0  0  0  0  0  0  0  0  0
    1.2140   -3.6672   -0.1377 H   0  0  0  0  0  0  0  0  0  0  0  0
    1.9507   -4.1061   -1.6573 H   0  0  0  0  0  0  0  0  0  0  0  0
    4.0186   -1.2210   -2.3019 H   0  0  0  0  0  0  0  0  0  0  0  0
    2.5803    1.1120   -1.8270 H   0  0  0  0  0  0  0  0  0  0  0  0
    3.2442    2.7047   -0.4288 H   0  0  0  0  0  0  0  0  0  0  0  0
  1 11  1  0  0  0  0
  1 20  1  0  0  0  0
  2 12  1  0  0  0  0
  2 40  1  0  0  0  0
  3 16  1  0  0  0  0
  3 22  1  0  0  0  0
  4 18  1  0  0  0  0
  4 54  1  0  0  0  0
  5 19  1  0  0  0  0
  5 55  1  0  0  0  0
  6 20  2  0  0  0  0
  7 22  2  0  0  0  0
  8  9  1  0  0  0  0
  8 13  1  0  0  0  0
  8 14  1  0  0  0  0
  9 10  1  0  0  0  0
  9 11  1  0  0  0  0
  9 27  1  0  0  0  0
 10 12  1  0  0  0  0
 10 16  1  0  0  0  0
 10 28  1  0  0  0  0
 11 15  1  0  0  0  0
 11 29  1  0  0  0  0
 12 13  1  0  0  0  0
 12 30  1  0  0  0  0
 13 31  1  0  0  0  0
 13 32  1  0  0  0  0
 14 15  1  0  0  0  0
 14 33  1  0  0  0  0
 14 34  1  0  0  0  0
 15 35  1  0  0  0  0
 15 36  1  0  0  0  0
 16 37  1  0  0  0  0
 16 38  1  0  0  0  0
 17 18  1  0  0  0  0
 17 20  1  0  0  0  0
 17 21  1  0  0  0  0
 17 39  1  0  0  0  0
 18 19  1  0  0  0  0
 18 23  1  0  0  0  0
 19 22  1  0  0  0  0
 19 24  1  0  0  0  0
 21 25  1  0  0  0  0
 21 26  1  0  0  0  0
 21 41  1  0  0  0  0
 23 42  1  0  0  0  0
 23 43  1  0  0  0  0
 23 44  1  0  0  0  0
 24 45  1  0  0  0  0
 24 46  1  0  0  0  0
 24 47  1  0  0  0  0
 25 48  1  0  0  0  0
 25 49  1  0  0  0  0
 25 53  1  0  0  0  0
 26 50  1  0  0  0  0
 26 51  1  0  0  0  0
 26 52  1  0  0  0  0
M  END
> <PUBCHEM_COMPOUND_CID>
101297661

> <PUBCHEM_CONFORMER_RMSD>
0.6

> <PUBCHEM_CONFORMER_DIVERSEORDER>
1
4
5
2
3

> <PUBCHEM_MMFF94_PARTIAL_CHARGES>
22
1 -0.43
11 0.28
12 0.28
13 0.27
14 0.27
16 0.28
17 0.06
18 0.28
19 0.34
2 -0.68
20 0.66
22 0.66
3 -0.43
4 -0.68
40 0.4
5 -0.68
54 0.4
55 0.4
6 -0.57
7 -0.57
8 -0.81
9 0.27

> <PUBCHEM_EFFECTIVE_ROTOR_COUNT>
3

> <PUBCHEM_PHARMACOPHORE_FEATURES>
12
1 2 acceptor
1 2 donor
1 4 acceptor
1 4 donor
1 5 acceptor
1 5 donor
1 6 acceptor
1 7 acceptor
1 8 cation
3 21 25 26 hydrophobe
5 8 9 10 12 13 rings
5 8 9 11 14 15 rings

> <PUBCHEM_HEAVY_ATOM_COUNT>
26

> <PUBCHEM_ATOM_DEF_STEREO_COUNT>
7

> <PUBCHEM_ATOM_UDEF_STEREO_COUNT>
0

> <PUBCHEM_BOND_DEF_STEREO_COUNT>
0

> <PUBCHEM_BOND_UDEF_STEREO_COUNT>
0

> <PUBCHEM_ISOTOPIC_ATOM_COUNT>
0

> <PUBCHEM_COMPONENT_COUNT>
1

> <PUBCHEM_CACTVS_TAUTO_COUNT>
2

> <PUBCHEM_CONFORMER_ID>
0609ADFD00000001

> <PUBCHEM_MMFF94_ENERGY>
85.866

> <PUBCHEM_FEATURE_SELFOVERLAP>
61.213

> <PUBCHEM_SHAPE_FINGERPRINT>
10366900 7 18202001044615526769
10498660 4 18113903736618371189
10759866 29 17895198852551505860
10764073 3 17614520828539612522
108634 29 18334855043495584051
10871710 139 16248005390059468540
1100329 8 17330833517778923601
11578080 2 17097190763284260478
11640471 11 15647059282461765987
12156800 1 13127244395559298299
12553582 1 17910975555424504758
13140716 1 18337397161480984361
13224815 77 18342459300183038809
13402501 40 18410856611406360979
13533116 47 17846222163880869913
14223421 5 18411141363427352595
14251745 187 18410013230148059256
14251757 17 18337105666625094493
14659021 117 17046560275929703054
15210252 30 17604161315265387868
15635459 17 18412826884767051063
16945 1 18271539619281280248
17093844 170 18262787480564502388
17357779 13 18200320909581172478
18186145 218 18263359192825648805
20600515 1 17762317146790066962
20645477 70 18342730819446890261
20691752 17 17823987722936257105
20775438 99 18054474055586234183
20905425 154 18408877447373723690
21756936 100 12110370224109460630
22182313 1 18334294267254134785
2334 1 17976828906036346969
23419403 2 17333034865002043360
23557571 272 18337112371195910619
23559900 14 18339919312459083386
23566358 2 18409157823466430527
238 59 18202556285160440542
2748010 2 18266748050243386498
4280585 95 18122066391053687334
463206 1 17841422932896426063
484985 159 13966941430134757046
495365 180 18059273453241212297
5262128 65 18057893450147007599
9709674 26 18413389817461462413

> <PUBCHEM_SHAPE_MULTIPOLES>
489
7.13
3.39
1.71
3.58
0.5
-0.24
0.25
-1.97
-1.03
-0.41
-0.57
0.18
2.01

> <PUBCHEM_SHAPE_SELFOVERLAP>
1029.974

> <PUBCHEM_SHAPE_VOLUME>
275.9

> <PUBCHEM_COORDINATE_TYPE>
2
5
10

$$$$
