102394640
  -OEChem-11202013303D

 50 53  0     0  0  0  0  0  0999 V2000
   -3.4579   -0.8719   -0.2318 O   0  0  0  0  0  0  0  0  0  0  0  0
   -0.1722    0.4502    0.7900 O   0  0  0  0  0  0  0  0  0  0  0  0
   -4.1518    3.8454    0.6349 O   0  0  0  0  0  0  0  0  0  0  0  0
   -1.8260    2.6830    0.9098 O   0  0  0  0  0  0  0  0  0  0  0  0
   -7.7453    1.0877   -0.7881 O   0  0  0  0  0  0  0  0  0  0  0  0
    0.5389   -4.3253    2.0980 O   0  0  0  0  0  0  0  0  0  0  0  0
    0.6433   -5.6474   -0.3451 O   0  0  0  0  0  0  0  0  0  0  0  0
    0.2849    0.9452   -1.4383 O   0  0  0  0  0  0  0  0  0  0  0  0
    7.7221    0.9511   -1.8836 O   0  0  0  0  0  0  0  0  0  0  0  0
    8.4581    1.3072    0.7734 O   0  0  0  0  0  0  0  0  0  0  0  0
   -3.7431    1.4960    0.2188 C   0  0  0  0  0  0  0  0  0  0  0  0
   -2.1188   -0.7675    0.1097 C   0  0  0  0  0  0  0  0  0  0  0  0
   -4.2393    0.2525   -0.1657 C   0  0  0  0  0  0  0  0  0  0  0  0
   -1.5147    0.3736    0.4884 C   0  0  0  0  0  0  0  0  0  0  0  0
   -2.3198    1.6160    0.5700 C   0  0  0  0  0  0  0  0  0  0  0  0
   -1.3947   -2.0459   -0.0064 C   0  0  0  0  0  0  0  0  0  0  0  0
   -4.5870    2.6084    0.2668 C   0  0  0  0  0  0  0  0  0  0  0  0
   -5.5855    0.1129   -0.5050 C   0  0  0  0  0  0  0  0  0  0  0  0
   -5.9330    2.4662   -0.0729 C   0  0  0  0  0  0  0  0  0  0  0  0
   -6.4314    1.2212   -0.4580 C   0  0  0  0  0  0  0  0  0  0  0  0
   -0.7613   -2.5920    1.1099 C   0  0  0  0  0  0  0  0  0  0  0  0
   -1.3424   -2.7095   -1.2322 C   0  0  0  0  0  0  0  0  0  0  0  0
   -0.0757   -3.8018    1.0006 C   0  0  0  0  0  0  0  0  0  0  0  0
   -0.6564   -3.9192   -1.3415 C   0  0  0  0  0  0  0  0  0  0  0  0
   -0.0232   -4.4654   -0.2251 C   0  0  0  0  0  0  0  0  0  0  0  0
    0.6258    0.7436   -0.2828 C   0  0  0  0  0  0  0  0  0  0  0  0
    4.4445    1.1294   -0.2748 C   0  0  0  0  0  0  0  0  0  0  0  0
    2.0235    0.7878    0.2110 C   0  0  0  0  0  0  0  0  0  0  0  0
    3.0190    1.0665   -0.6428 C   0  0  0  0  0  0  0  0  0  0  0  0
    5.4245    1.0097   -1.2601 C   0  0  0  0  0  0  0  0  0  0  0  0
    4.8139    1.3083    1.0584 C   0  0  0  0  0  0  0  0  0  0  0  0
    6.7742    1.0690   -0.9123 C   0  0  0  0  0  0  0  0  0  0  0  0
    6.1635    1.3673    1.4061 C   0  0  0  0  0  0  0  0  0  0  0  0
    7.1436    1.2478    0.4207 C   0  0  0  0  0  0  0  0  0  0  0  0
   -5.9760   -0.8561   -0.8055 H   0  0  0  0  0  0  0  0  0  0  0  0
   -6.5911    3.3313   -0.0359 H   0  0  0  0  0  0  0  0  0  0  0  0
   -0.8048   -2.0833    2.0707 H   0  0  0  0  0  0  0  0  0  0  0  0
   -1.8278   -2.2960   -2.1129 H   0  0  0  0  0  0  0  0  0  0  0  0
   -0.6228   -4.4252   -2.3027 H   0  0  0  0  0  0  0  0  0  0  0  0
   -3.2069    3.8239    0.8501 H   0  0  0  0  0  0  0  0  0  0  0  0
    2.1828    0.5675    1.2602 H   0  0  0  0  0  0  0  0  0  0  0  0
   -8.1822    1.9522   -0.7001 H   0  0  0  0  0  0  0  0  0  0  0  0
    2.8028    1.2540   -1.6921 H   0  0  0  0  0  0  0  0  0  0  0  0
    5.1405    0.8688   -2.3008 H   0  0  0  0  0  0  0  0  0  0  0  0
    4.0861    1.4262    1.8557 H   0  0  0  0  0  0  0  0  0  0  0  0
    0.3985   -3.7303    2.8545 H   0  0  0  0  0  0  0  0  0  0  0  0
    6.4379    1.5112    2.4478 H   0  0  0  0  0  0  0  0  0  0  0  0
    0.5727   -5.9590   -1.2638 H   0  0  0  0  0  0  0  0  0  0  0  0
    7.2828    0.8339   -2.7434 H   0  0  0  0  0  0  0  0  0  0  0  0
    8.5226    1.4339    1.7356 H   0  0  0  0  0  0  0  0  0  0  0  0
  1 12  1  0  0  0  0
  1 13  1  0  0  0  0
  2 14  1  0  0  0  0
  2 26  1  0  0  0  0
  3 17  1  0  0  0  0
  3 40  1  0  0  0  0
  4 15  2  0  0  0  0
  5 20  1  0  0  0  0
  5 42  1  0  0  0  0
  6 23  1  0  0  0  0
  6 46  1  0  0  0  0
  7 25  1  0  0  0  0
  7 48  1  0  0  0  0
  8 26  2  0  0  0  0
  9 32  1  0  0  0  0
  9 49  1  0  0  0  0
 10 34  1  0  0  0  0
 10 50  1  0  0  0  0
 11 13  1  0  0  0  0
 11 15  1  0  0  0  0
 11 17  2  0  0  0  0
 12 14  2  0  0  0  0
 12 16  1  0  0  0  0
 13 18  2  0  0  0  0
 14 15  1  0  0  0  0
 16 21  2  0  0  0  0
 16 22  1  0  0  0  0
 17 19  1  0  0  0  0
 18 20  1  0  0  0  0
 18 35  1  0  0  0  0
 19 20  2  0  0  0  0
 19 36  1  0  0  0  0
 21 23  1  0  0  0  0
 21 37  1  0  0  0  0
 22 24  2  0  0  0  0
 22 38  1  0  0  0  0
 23 25  2  0  0  0  0
 24 25  1  0  0  0  0
 24 39  1  0  0  0  0
 26 28  1  0  0  0  0
 27 29  1  0  0  0  0
 27 30  2  0  0  0  0
 27 31  1  0  0  0  0
 28 29  2  0  0  0  0
 28 41  1  0  0  0  0
 29 43  1  0  0  0  0
 30 32  1  0  0  0  0
 30 44  1  0  0  0  0
 31 33  2  0  0  0  0
 31 45  1  0  0  0  0
 32 34  2  0  0  0  0
 33 34  1  0  0  0  0
 33 47  1  0  0  0  0
M  END
> <PUBCHEM_COMPOUND_CID>
102394640

> <PUBCHEM_CONFORMER_RMSD>
0.8

> <PUBCHEM_CONFORMER_DIVERSEORDER>
1
154
206
156
225
313
133
241
149
281
221
271
128
106
242
69
285
164
192
261
280
236
315
199
108
209
321
339
240
312
220
327
83
318
299
222
92
9
172
194
304
296
238
276
101
109
37
329
338
235
104
322
202
342
346
345
35
278
43
320
159
19
33
180
39
155
328
123
196
253
251
270
191
52
292
120
90
174
205
184
250
118
223
231
107
68
166
31
190
348
232
269
255
227
32
229
193
343
326
88
183
151
325
11
114
152
263
262
208
97
21
228
137
257
254
173
81
337
96
121
198
200
347
213
197
314
214
226
290
248
50
129
105
210
288
212
74
249
300
287
216
53
305
294
80
215
268
319
158
45
91
100
324
333
41
340
161
311
275
298
323
317
143
73
145
189
40
293
224
67
93
274
302
303
48
310
301
266
44
131
243
218
89
78
252
95
283
99
341
87
188
46
134
201
279
116
66
331
217
163
142
25
219
94
306
85
112
135
175
336
260
258
36
286
72
162
211
86
176
297
14
136
58
344
247
132
51
272
330
335
187
295
63
289
84
49
141
124
332
27
138
284
62
12
130
115
146
204
113
122
2
55
291
30
171
265
56
282
177
42
181
119
17
349
160
267
77
256
169
71
165
148
182
54
245
259
139
140
8
147
64
110
168
117
57
111
309
24
178
264
334
307
179
70
126
234
144
170
75
185
277
34
157
60
207
153
47
4
203
76
308
125
233
26
38
316
61
150
246
186
23
20
22
29
6
167
18
244
103
195
28
5
102
98
237
13
15
3
127
16
10
239
230
59
79
273
7
65
82

> <PUBCHEM_MMFF94_PARTIAL_CHARGES>
50
1 -0.16
10 -0.53
11 0.09
12 0.05
13 0.08
14 0.09
15 0.47
16 0.03
17 0.08
18 -0.15
19 -0.15
2 -0.23
20 0.08
21 -0.15
22 -0.15
23 0.08
24 -0.15
25 0.08
26 0.71
27 0.03
28 -0.14
29 -0.18
3 -0.53
30 -0.15
31 -0.15
32 0.08
33 -0.15
34 0.08
35 0.15
36 0.15
37 0.15
38 0.15
39 0.15
4 -0.57
40 0.45
41 0.15
42 0.45
43 0.15
44 0.15
45 0.15
46 0.45
47 0.15
48 0.45
49 0.45
5 -0.53
50 0.45
6 -0.53
7 -0.53
8 -0.57
9 -0.53

> <PUBCHEM_EFFECTIVE_ROTOR_COUNT>
5

> <PUBCHEM_PHARMACOPHORE_FEATURES>
13
1 1 acceptor
1 10 donor
1 3 donor
1 4 acceptor
1 5 donor
1 6 donor
1 7 donor
1 8 acceptor
1 9 donor
6 1 11 12 13 14 15 rings
6 11 13 17 18 19 20 rings
6 16 21 22 23 24 25 rings
6 27 30 31 32 33 34 rings

> <PUBCHEM_HEAVY_ATOM_COUNT>
34

> <PUBCHEM_ATOM_DEF_STEREO_COUNT>
0

> <PUBCHEM_ATOM_UDEF_STEREO_COUNT>
0

> <PUBCHEM_BOND_DEF_STEREO_COUNT>
1

> <PUBCHEM_BOND_UDEF_STEREO_COUNT>
0

> <PUBCHEM_ISOTOPIC_ATOM_COUNT>
0

> <PUBCHEM_COMPONENT_COUNT>
1

> <PUBCHEM_CACTVS_TAUTO_COUNT>
994

> <PUBCHEM_CONFORMER_ID>
061A6B1000000001

> <PUBCHEM_MMFF94_ENERGY>
105.6282

> <PUBCHEM_FEATURE_SELFOVERLAP>
66.012

> <PUBCHEM_SHAPE_FINGERPRINT>
10050765 1 18050849919617193777
10190206 1 18270667775675648127
102385 1 17689718979420690833
10305334 12 17385442145836414723
10369192 42 18260828194463112877
10940486 97 18190746530015411940
11007060 377 18273219715586842537
11135926 11 18410289191310116469
11136131 41 18262513685285060843
11200772 48 18340210777708994554
11578080 2 17607518039299169237
11991303 11 18335140946493757350
12788726 201 17829620800210083911
12977781 61 17631475477822896238
13150687 139 18272936002937478134
13540713 5 17913206456918981353
14659021 117 17910097346576963130
14840074 17 17458340849543135404
14844126 61 18194964278052212010
14856354 85 16877948277739111104
15131766 46 15794006924793134476
15347591 1 18122624947957203921
15361156 5 18127414677777988916
15439362 3 18192151495527131095
15927050 60 18342453751028166879
16719943 64 18410576218740465722
20554085 129 18272355456566173121
21133665 82 18410577284704927118
21360443 120 18333733494131987059
23559900 14 18130220583748776440
249057 3 18336829783801935044
3383291 50 18268149927738249011
3411729 13 18262797346668442099
4015057 19 16702023140408874192
4017518 198 18412832378516098110
4073 2 18267865159576234944
4874694 18 18272086116064056740
497634 4 15937537155297454138
5080951 261 18044349834105563564
5265222 85 18339082712811911940
5385378 56 18266184937746216489
58260988 114 16371578144626541763
59755656 520 18411129260093364500
6371380 46 18340764931548710544
6669772 16 18342181029041532479
6691757 9 18341059596301077912
9981440 41 18409454674325983771

> <PUBCHEM_SHAPE_MULTIPOLES>
641.01
18.54
5.56
1.31
24.62
10.25
-0.01
-21.36
2.94
-3.56
-0.84
1.48
0.54
-0.44

> <PUBCHEM_SHAPE_SELFOVERLAP>
1430.974

> <PUBCHEM_SHAPE_VOLUME>
336.7

> <PUBCHEM_COORDINATE_TYPE>
2
5
10

$$$$
