10372074
  -OEChem-11202013433D

104109  0     1  0  0  0  0  0999 V2000
    7.6291    1.4937    0.5481 O   0  0  0  0  0  0  0  0  0  0  0  0
    6.1779    0.9399    2.8997 O   0  0  0  0  0  0  0  0  0  0  0  0
    6.7804   -1.3088   -1.3812 O   0  0  0  0  0  0  0  0  0  0  0  0
   -2.7301    0.2500    0.1217 O   0  0  0  0  0  0  0  0  0  0  0  0
   -4.7850   -0.7378   -0.2508 O   0  0  0  0  0  0  0  0  0  0  0  0
   -4.1713    1.9333   -0.6084 O   0  0  0  0  0  0  0  0  0  0  0  0
   -1.6165    2.0488    2.0011 O   0  0  0  0  0  0  0  0  0  0  0  0
   -1.8474    4.8488    1.1139 O   0  0  0  0  0  0  0  0  0  0  0  0
   -4.5697    5.4464    0.3472 O   0  0  0  0  0  0  0  0  0  0  0  0
   -6.6616    2.3793   -1.6833 O   0  0  0  0  0  0  0  0  0  0  0  0
    1.3837   -0.7086   -0.9289 C   0  0  2  0  0  0  0  0  0  0  0  0
    2.1584   -0.4091    0.4154 C   0  0  1  0  0  0  0  0  0  0  0  0
    3.3861    0.6080    0.3362 C   0  0  2  0  0  0  0  0  0  0  0  0
    0.3877   -1.9865   -0.6812 C   0  0  1  0  0  0  0  0  0  0  0  0
    4.3380    0.1013   -0.8089 C   0  0  1  0  0  0  0  0  0  0  0  0
    2.4239   -0.9994   -2.0512 C   0  0  0  0  0  0  0  0  0  0  0  0
   -0.4758   -1.7593    0.5725 C   0  0  0  0  0  0  0  0  0  0  0  0
    3.5757    0.0066   -2.1467 C   0  0  0  0  0  0  0  0  0  0  0  0
    5.7520    0.7906   -0.8924 C   0  0  1  0  0  0  0  0  0  0  0  0
   -1.8680   -2.4011    0.6577 C   0  0  1  0  0  0  0  0  0  0  0  0
    1.1894   -0.1417    1.5877 C   0  0  0  0  0  0  0  0  0  0  0  0
    4.1744    0.5324    1.6755 C   0  0  0  0  0  0  0  0  0  0  0  0
   -0.5456   -2.2780   -1.8980 C   0  0  0  0  0  0  0  0  0  0  0  0
   -2.7391   -1.9994   -0.5785 C   0  0  1  0  0  0  0  0  0  0  0  0
    0.5559    0.5209   -1.3875 C   0  0  0  0  0  0  0  0  0  0  0  0
   -1.9181   -1.6098   -1.8308 C   0  0  0  0  0  0  0  0  0  0  0  0
    6.4256    0.7206    0.5126 C   0  0  2  0  0  0  0  0  0  0  0  0
   -0.0786   -0.9357    1.5606 C   0  0  0  0  0  0  0  0  0  0  0  0
    5.5374    1.2234    1.6506 C   0  0  2  0  0  0  0  0  0  0  0  0
    2.9290    2.0760    0.1432 C   0  0  0  0  0  0  0  0  0  0  0  0
    1.2179   -3.2895   -0.4661 C   0  0  0  0  0  0  0  0  0  0  0  0
   -1.8793   -3.9349    0.9398 C   0  0  2  0  0  0  0  0  0  0  0  0
   -3.7532   -3.1024   -0.9544 C   0  0  0  0  0  0  0  0  0  0  0  0
   -3.3265   -4.4780    1.1349 C   0  0  1  0  0  0  0  0  0  0  0  0
    6.6533   -0.0007   -1.8823 C   0  0  0  0  0  0  0  0  0  0  0  0
    5.7104    2.2384   -1.4223 C   0  0  0  0  0  0  0  0  0  0  0  0
   -4.3705   -3.7434    0.2810 C   0  0  0  0  0  0  0  0  0  0  0  0
   -3.5622   -0.7736   -0.2231 C   0  0  0  0  0  0  0  0  0  0  0  0
   -1.0339   -4.2917    2.1763 C   0  0  0  0  0  0  0  0  0  0  0  0
   -3.3882   -5.9856    0.8463 C   0  0  0  0  0  0  0  0  0  0  0  0
   -3.3760    1.4710    0.4808 C   0  0  2  0  0  0  0  0  0  0  0  0
   -2.2927    2.4930    0.8252 C   0  0  1  0  0  0  0  0  0  0  0  0
   -2.8930    3.8762    1.0768 C   0  0  2  0  0  0  0  0  0  0  0  0
   -4.8670    3.1436   -0.3040 C   0  0  1  0  0  0  0  0  0  0  0  0
   -3.8647    4.2688   -0.0363 C   0  0  1  0  0  0  0  0  0  0  0  0
   -5.7725    3.4640   -1.4890 C   0  0  0  0  0  0  0  0  0  0  0  0
    2.6455   -1.3572    0.6797 H   0  0  0  0  0  0  0  0  0  0  0  0
    4.5582   -0.9431   -0.5352 H   0  0  0  0  0  0  0  0  0  0  0  0
    1.9303   -1.0534   -3.0285 H   0  0  0  0  0  0  0  0  0  0  0  0
    2.8951   -1.9737   -1.8967 H   0  0  0  0  0  0  0  0  0  0  0  0
    3.2072    0.9802   -2.4795 H   0  0  0  0  0  0  0  0  0  0  0  0
    4.2298   -0.3508   -2.9464 H   0  0  0  0  0  0  0  0  0  0  0  0
   -2.3653   -1.9715    1.5431 H   0  0  0  0  0  0  0  0  0  0  0  0
    1.6967   -0.3653    2.5337 H   0  0  0  0  0  0  0  0  0  0  0  0
    0.9010    0.9106    1.6344 H   0  0  0  0  0  0  0  0  0  0  0  0
    4.3273   -0.5186    1.9593 H   0  0  0  0  0  0  0  0  0  0  0  0
    3.5816    0.9640    2.4928 H   0  0  0  0  0  0  0  0  0  0  0  0
   -0.0573   -2.0016   -2.8381 H   0  0  0  0  0  0  0  0  0  0  0  0
   -0.7226   -3.3588   -1.9864 H   0  0  0  0  0  0  0  0  0  0  0  0
    1.1609    1.4113   -1.5424 H   0  0  0  0  0  0  0  0  0  0  0  0
    0.0863    0.3409   -2.3591 H   0  0  0  0  0  0  0  0  0  0  0  0
   -0.2236    0.7859   -0.6734 H   0  0  0  0  0  0  0  0  0  0  0  0
   -1.8068   -0.5274   -1.9268 H   0  0  0  0  0  0  0  0  0  0  0  0
   -2.4739   -1.8910   -2.7363 H   0  0  0  0  0  0  0  0  0  0  0  0
    6.7169   -0.3070    0.7636 H   0  0  0  0  0  0  0  0  0  0  0  0
   -0.7301   -0.7816    2.4182 H   0  0  0  0  0  0  0  0  0  0  0  0
    5.4418    2.3125    1.6037 H   0  0  0  0  0  0  0  0  0  0  0  0
    3.5901    2.7908    0.6394 H   0  0  0  0  0  0  0  0  0  0  0  0
    2.8941    2.3785   -0.9048 H   0  0  0  0  0  0  0  0  0  0  0  0
    1.9419    2.2729    0.5653 H   0  0  0  0  0  0  0  0  0  0  0  0
    1.9126   -3.2234    0.3746 H   0  0  0  0  0  0  0  0  0  0  0  0
    0.5846   -4.1555   -0.2624 H   0  0  0  0  0  0  0  0  0  0  0  0
    1.7826   -3.5672   -1.3607 H   0  0  0  0  0  0  0  0  0  0  0  0
   -1.4492   -4.4512    0.0748 H   0  0  0  0  0  0  0  0  0  0  0  0
   -3.2517   -3.8854   -1.5393 H   0  0  0  0  0  0  0  0  0  0  0  0
   -4.5489   -2.7184   -1.6056 H   0  0  0  0  0  0  0  0  0  0  0  0
   -3.6214   -4.3439    2.1847 H   0  0  0  0  0  0  0  0  0  0  0  0
    7.6546    0.4386   -1.9510 H   0  0  0  0  0  0  0  0  0  0  0  0
    6.2517   -0.0305   -2.8981 H   0  0  0  0  0  0  0  0  0  0  0  0
    5.2797    2.9391   -0.7064 H   0  0  0  0  0  0  0  0  0  0  0  0
    5.1416    2.3094   -2.3546 H   0  0  0  0  0  0  0  0  0  0  0  0
    6.7191    2.6093   -1.6410 H   0  0  0  0  0  0  0  0  0  0  0  0
   -4.8532   -2.9790    0.9012 H   0  0  0  0  0  0  0  0  0  0  0  0
   -5.1752   -4.4231   -0.0240 H   0  0  0  0  0  0  0  0  0  0  0  0
   -1.0322   -5.3695    2.3624 H   0  0  0  0  0  0  0  0  0  0  0  0
    0.0111   -3.9931    2.0601 H   0  0  0  0  0  0  0  0  0  0  0  0
   -1.4236   -3.7971    3.0729 H   0  0  0  0  0  0  0  0  0  0  0  0
    8.2906    1.0404   -0.0002 H   0  0  0  0  0  0  0  0  0  0  0  0
    5.6153    1.3005    3.6063 H   0  0  0  0  0  0  0  0  0  0  0  0
   -4.3964   -6.3735    1.0285 H   0  0  0  0  0  0  0  0  0  0  0  0
   -3.1280   -6.2002   -0.1958 H   0  0  0  0  0  0  0  0  0  0  0  0
   -2.7056   -6.5486    1.4889 H   0  0  0  0  0  0  0  0  0  0  0  0
    7.3499   -1.8010   -1.9966 H   0  0  0  0  0  0  0  0  0  0  0  0
   -4.0116    1.2733    1.3550 H   0  0  0  0  0  0  0  0  0  0  0  0
   -1.5437    2.5508    0.0280 H   0  0  0  0  0  0  0  0  0  0  0  0
   -3.3919    3.9200    2.0527 H   0  0  0  0  0  0  0  0  0  0  0  0
   -5.5047    2.9693    0.5733 H   0  0  0  0  0  0  0  0  0  0  0  0
   -3.2900    4.5023   -0.9421 H   0  0  0  0  0  0  0  0  0  0  0  0
   -2.2676    1.9946    2.7213 H   0  0  0  0  0  0  0  0  0  0  0  0
   -6.3653    4.3665   -1.3161 H   0  0  0  0  0  0  0  0  0  0  0  0
   -5.1869    3.5842   -2.4065 H   0  0  0  0  0  0  0  0  0  0  0  0
   -1.2201    4.5735    1.8042 H   0  0  0  0  0  0  0  0  0  0  0  0
   -4.9870    5.8160   -0.4488 H   0  0  0  0  0  0  0  0  0  0  0  0
   -7.2232    2.6011   -2.4455 H   0  0  0  0  0  0  0  0  0  0  0  0
  1 27  1  0  0  0  0
  1 88  1  0  0  0  0
  2 29  1  0  0  0  0
  2 89  1  0  0  0  0
  3 35  1  0  0  0  0
  3 93  1  0  0  0  0
  4 38  1  0  0  0  0
  4 41  1  0  0  0  0
  5 38  2  0  0  0  0
  6 41  1  0  0  0  0
  6 44  1  0  0  0  0
  7 42  1  0  0  0  0
  7 99  1  0  0  0  0
  8 43  1  0  0  0  0
  8102  1  0  0  0  0
  9 45  1  0  0  0  0
  9103  1  0  0  0  0
 10 46  1  0  0  0  0
 10104  1  0  0  0  0
 11 12  1  0  0  0  0
 11 14  1  0  0  0  0
 11 16  1  0  0  0  0
 11 25  1  0  0  0  0
 12 13  1  0  0  0  0
 12 21  1  0  0  0  0
 12 47  1  0  0  0  0
 13 15  1  0  0  0  0
 13 22  1  0  0  0  0
 13 30  1  0  0  0  0
 14 17  1  0  0  0  0
 14 23  1  0  0  0  0
 14 31  1  0  0  0  0
 15 18  1  0  0  0  0
 15 19  1  0  0  0  0
 15 48  1  0  0  0  0
 16 18  1  0  0  0  0
 16 49  1  0  0  0  0
 16 50  1  0  0  0  0
 17 20  1  0  0  0  0
 17 28  2  0  0  0  0
 18 51  1  0  0  0  0
 18 52  1  0  0  0  0
 19 27  1  0  0  0  0
 19 35  1  0  0  0  0
 19 36  1  0  0  0  0
 20 24  1  0  0  0  0
 20 32  1  0  0  0  0
 20 53  1  0  0  0  0
 21 28  1  0  0  0  0
 21 54  1  0  0  0  0
 21 55  1  0  0  0  0
 22 29  1  0  0  0  0
 22 56  1  0  0  0  0
 22 57  1  0  0  0  0
 23 26  1  0  0  0  0
 23 58  1  0  0  0  0
 23 59  1  0  0  0  0
 24 26  1  0  0  0  0
 24 33  1  0  0  0  0
 24 38  1  0  0  0  0
 25 60  1  0  0  0  0
 25 61  1  0  0  0  0
 25 62  1  0  0  0  0
 26 63  1  0  0  0  0
 26 64  1  0  0  0  0
 27 29  1  0  0  0  0
 27 65  1  0  0  0  0
 28 66  1  0  0  0  0
 29 67  1  0  0  0  0
 30 68  1  0  0  0  0
 30 69  1  0  0  0  0
 30 70  1  0  0  0  0
 31 71  1  0  0  0  0
 31 72  1  0  0  0  0
 31 73  1  0  0  0  0
 32 34  1  0  0  0  0
 32 39  1  0  0  0  0
 32 74  1  0  0  0  0
 33 37  1  0  0  0  0
 33 75  1  0  0  0  0
 33 76  1  0  0  0  0
 34 37  1  0  0  0  0
 34 40  1  0  0  0  0
 34 77  1  0  0  0  0
 35 78  1  0  0  0  0
 35 79  1  0  0  0  0
 36 80  1  0  0  0  0
 36 81  1  0  0  0  0
 36 82  1  0  0  0  0
 37 83  1  0  0  0  0
 37 84  1  0  0  0  0
 39 85  1  0  0  0  0
 39 86  1  0  0  0  0
 39 87  1  0  0  0  0
 40 90  1  0  0  0  0
 40 91  1  0  0  0  0
 40 92  1  0  0  0  0
 41 42  1  0  0  0  0
 41 94  1  0  0  0  0
 42 43  1  0  0  0  0
 42 95  1  0  0  0  0
 43 45  1  0  0  0  0
 43 96  1  0  0  0  0
 44 45  1  0  0  0  0
 44 46  1  0  0  0  0
 44 97  1  0  0  0  0
 45 98  1  0  0  0  0
 46100  1  0  0  0  0
 46101  1  0  0  0  0
M  END
> <PUBCHEM_COMPOUND_CID>
10372074

> <PUBCHEM_CONFORMER_RMSD>
1.2

> <PUBCHEM_CONFORMER_DIVERSEORDER>
1
19
13
17
4
16
9
14
12
6
7
15
8
10
2
18
5
11
3

> <PUBCHEM_MMFF94_PARTIAL_CHARGES>
34
1 -0.68
10 -0.68
102 0.4
103 0.4
104 0.4
14 0.14
17 -0.28
2 -0.68
20 0.14
21 0.14
24 0.06
27 0.28
28 -0.29
29 0.28
3 -0.68
35 0.28
38 0.66
4 -0.43
41 0.56
42 0.28
43 0.28
44 0.28
45 0.28
46 0.28
5 -0.57
6 -0.56
66 0.15
7 -0.68
8 -0.68
88 0.4
89 0.4
9 -0.68
93 0.4
99 0.4

> <PUBCHEM_EFFECTIVE_ROTOR_COUNT>
8.8

> <PUBCHEM_PHARMACOPHORE_FEATURES>
22
1 1 acceptor
1 1 donor
1 10 acceptor
1 10 donor
1 2 acceptor
1 2 donor
1 3 acceptor
1 3 donor
1 5 acceptor
1 6 acceptor
1 7 acceptor
1 7 donor
1 8 acceptor
1 8 donor
1 9 acceptor
1 9 donor
6 11 12 13 15 16 18 rings
6 11 12 14 17 21 28 rings
6 13 15 19 22 27 29 rings
6 14 17 20 23 24 26 rings
6 20 24 32 33 34 37 rings
6 6 41 42 43 44 45 rings

> <PUBCHEM_HEAVY_ATOM_COUNT>
46

> <PUBCHEM_ATOM_DEF_STEREO_COUNT>
17

> <PUBCHEM_ATOM_UDEF_STEREO_COUNT>
0

> <PUBCHEM_BOND_DEF_STEREO_COUNT>
0

> <PUBCHEM_BOND_UDEF_STEREO_COUNT>
0

> <PUBCHEM_ISOTOPIC_ATOM_COUNT>
0

> <PUBCHEM_COMPONENT_COUNT>
1

> <PUBCHEM_CACTVS_TAUTO_COUNT>
1

> <PUBCHEM_CONFORMER_ID>
009E43EA00000001

> <PUBCHEM_MMFF94_ENERGY>
191.8399

> <PUBCHEM_FEATURE_SELFOVERLAP>
111.776

> <PUBCHEM_SHAPE_FINGERPRINT>
10032420 55 18198880609847917761
10290309 65 18338805503318228531
10937287 8 18192998115185570721
11059845 2 18191003657022299776
11062273 23 18262530285903014955
11297750 10 17394723317784113335
11434127 23 18343300366332811892
11991303 11 18336554832304799756
12107183 9 18044361748150119234
12107698 1 18119250807777562230
12128747 34 18200323126153985102
12788726 201 18262518216612363779
13782708 43 17983867949772300798
14068700 675 17825948405746115127
14294032 229 18337404781248885097
14713325 29 18341625840257375859
14856354 85 18193846061409572462
15001296 14 18191869144051018752
15200665 1 18335150760267031993
15219462 58 18197192919634157706
15324884 4 17700109278724776779
15419008 47 17915468400585226410
15439362 3 18051979121472360308
15684970 41 17471567102020348058
15876981 60 18117002280633985759
15968369 153 17986103239346181980
16067689 391 16268586676416821996
16067689 68 17970882567677423002
16067690 210 18264756839223434944
16990350 14 17759801446805924721
17899979 129 17690571779716605969
21033650 10 18188790434473413434
21133410 221 17555977554661887520
21639891 77 17972597960230334035
21772528 278 18269568147904861021
21859007 373 18131061633319455344
21927370 108 18122635109385992899
23522609 53 17241056482980712812
25223398 141 18272379676572622244
3418910 222 17976550725817315948
376196 1 17984425144352546463
4058900 60 18123194494036036017
4112364 45 17826509964525524801
4144715 1 18410303523230848270
469060 322 18124900072667305059
508706 21 18343023310935470216
550186 7 18343024406036197055
6086070 43 16917056777442887346
6700243 42 17695108678018993598
9849439 229 18265894645006611065
9961470 85 18266453213819031906

> <PUBCHEM_SHAPE_MULTIPOLES>
887.97
15.41
7.06
2.1
21.46
0.62
0.15
9.7
-2.3
-17.14
2.18
1.9
-0.21
1.97

> <PUBCHEM_SHAPE_SELFOVERLAP>
1883.854

> <PUBCHEM_SHAPE_VOLUME>
487.4

> <PUBCHEM_COORDINATE_TYPE>
2
5
10

$$$$
