102212084
  -OEChem-11212001212D

144151  0     1  0  0  0  0  0999 V2000
   21.8779    3.1999    0.0000 O   0  0  0  0  0  0  0  0  0  0  0  0
   21.8456    1.1085    0.0000 O   0  0  0  0  0  0  0  0  0  0  0  0
   12.9292    0.1823    0.0000 O   0  0  0  0  0  0  0  0  0  0  0  0
   13.7953    1.6823    0.0000 O   0  0  0  0  0  0  0  0  0  0  0  0
   11.1972    0.1823    0.0000 O   0  0  0  0  0  0  0  0  0  0  0  0
   12.9292    2.1823    0.0000 O   0  0  0  0  0  0  0  0  0  0  0  0
   11.1972    3.1823    0.0000 O   0  0  0  0  0  0  0  0  0  0  0  0
    9.4651    2.1823    0.0000 O   0  0  0  0  0  0  0  0  0  0  0  0
    9.4651   -0.8177    0.0000 O   0  0  0  0  0  0  0  0  0  0  0  0
    7.7331   -0.8177    0.0000 O   0  0  0  0  0  0  0  0  0  0  0  0
    9.4651   -2.8177    0.0000 O   0  0  0  0  0  0  0  0  0  0  0  0
    6.0010   -2.8177    0.0000 O   0  0  0  0  0  0  0  0  0  0  0  0
    7.7331   -3.8177    0.0000 O   0  0  0  0  0  0  0  0  0  0  0  0
    6.0010    0.1823    0.0000 O   0  0  0  0  0  0  0  0  0  0  0  0
    5.1350   -1.3177    0.0000 O   0  0  0  0  0  0  0  0  0  0  0  0
    4.2690   -3.8177    0.0000 O   0  0  0  0  0  0  0  0  0  0  0  0
    2.5369   -2.8177    0.0000 O   0  0  0  0  0  0  0  0  0  0  0  0
    2.5369   -0.8177    0.0000 O   0  0  0  0  0  0  0  0  0  0  0  0
   17.3390    1.6826    0.0000 C   0  0  2  0  0  0  0  0  0  0  0  0
   18.2011    1.1759    0.0000 C   0  0  1  0  0  0  0  0  0  0  0  0
   19.1150    1.6757    0.0000 C   0  0  2  0  0  0  0  0  0  0  0  0
   16.4691    1.1892    0.0000 C   0  0  1  0  0  0  0  0  0  0  0  0
   19.1311    2.7172    0.0000 C   0  0  1  0  0  0  0  0  0  0  0  0
   17.3309    2.7242    0.0000 C   0  0  0  0  0  0  0  0  0  0  0  0
   16.4614    0.1893    0.0000 C   0  0  0  0  0  0  0  0  0  0  0  0
   18.2330    3.2450    0.0000 C   0  0  0  0  0  0  0  0  0  0  0  0
   20.0707    3.2597    0.0000 C   0  0  0  0  0  0  0  0  0  0  0  0
   15.5634   -0.3385    0.0000 C   0  0  1  0  0  0  0  0  0  0  0  0
   18.1934    0.1759    0.0000 C   0  0  0  0  0  0  0  0  0  0  0  0
   20.0375    1.1045    0.0000 C   0  0  0  0  0  0  0  0  0  0  0  0
   15.5793    1.7308    0.0000 C   0  0  0  0  0  0  0  0  0  0  0  0
   14.6613    0.1823    0.0000 C   0  0  1  0  0  0  0  0  0  0  0  0
   16.7021    2.4535    0.0000 C   0  0  0  0  0  0  0  0  0  0  0  0
   14.6693    1.2239    0.0000 C   0  0  0  0  0  0  0  0  0  0  0  0
   21.0061    2.7100    0.0000 C   0  0  2  0  0  0  0  0  0  0  0  0
   17.3236   -0.3174    0.0000 C   0  0  0  0  0  0  0  0  0  0  0  0
   19.0996    0.6758    0.0000 C   0  0  0  0  0  0  0  0  0  0  0  0
   20.9894    1.6251    0.0000 C   0  0  2  0  0  0  0  0  0  0  0  0
   16.1343    2.1316    0.0000 C   0  0  0  0  0  0  0  0  0  0  0  0
   15.5801   -1.4233    0.0000 C   0  0  2  0  0  0  0  0  0  0  0  0
   13.7134   -0.3456    0.0000 C   0  0  0  0  0  0  0  0  0  0  0  0
   14.6447   -1.9731    0.0000 C   0  0  1  0  0  0  0  0  0  0  0  0
   20.5740    4.1238    0.0000 C   0  0  0  0  0  0  0  0  0  0  0  0
   19.5740    4.1277    0.0000 C   0  0  0  0  0  0  0  0  0  0  0  0
   13.7050   -1.4306    0.0000 C   0  0  0  0  0  0  0  0  0  0  0  0
   13.7953    0.6823    0.0000 C   0  0  0  0  0  0  0  0  0  0  0  0
   16.4518   -1.9133    0.0000 C   0  0  0  0  0  0  0  0  0  0  0  0
   14.6485   -2.9731    0.0000 C   0  0  0  0  0  0  0  0  0  0  0  0
   12.0632    0.6823    0.0000 C   0  0  2  0  0  0  0  0  0  0  0  0
   12.0632    1.6823    0.0000 C   0  0  1  0  0  0  0  0  0  0  0  0
   11.1972    2.1823    0.0000 C   0  0  2  0  0  0  0  0  0  0  0  0
   10.3312    0.6823    0.0000 C   0  0  1  0  0  0  0  0  0  0  0  0
   10.3312    1.6823    0.0000 C   0  0  1  0  0  0  0  0  0  0  0  0
    9.4651    0.1823    0.0000 C   0  0  0  0  0  0  0  0  0  0  0  0
    8.5991   -1.3177    0.0000 C   0  0  2  0  0  0  0  0  0  0  0  0
    8.5991   -2.3177    0.0000 C   0  0  1  0  0  0  0  0  0  0  0  0
    7.7331   -2.8177    0.0000 C   0  0  2  0  0  0  0  0  0  0  0  0
    6.8671   -1.3177    0.0000 C   0  0  1  0  0  0  0  0  0  0  0  0
    6.8671   -2.3177    0.0000 C   0  0  1  0  0  0  0  0  0  0  0  0
    6.0010   -0.8177    0.0000 C   0  0  0  0  0  0  0  0  0  0  0  0
    5.1350   -2.3177    0.0000 C   0  0  2  0  0  0  0  0  0  0  0  0
    4.2690   -2.8177    0.0000 C   0  0  1  0  0  0  0  0  0  0  0  0
    3.4030   -2.3177    0.0000 C   0  0  1  0  0  0  0  0  0  0  0  0
    4.2690   -0.8177    0.0000 C   0  0  2  0  0  0  0  0  0  0  0  0
    3.4030   -1.3177    0.0000 C   0  0  2  0  0  0  0  0  0  0  0  0
    4.2690    0.1823    0.0000 C   0  0  0  0  0  0  0  0  0  0  0  0
   18.9306    0.7396    0.0000 H   0  0  0  0  0  0  0  0  0  0  0  0
   19.1343    3.5672    0.0000 H   0  0  0  0  0  0  0  0  0  0  0  0
   17.1174    3.3062    0.0000 H   0  0  0  0  0  0  0  0  0  0  0  0
   16.7209    2.6134    0.0000 H   0  0  0  0  0  0  0  0  0  0  0  0
   18.6340    3.7179    0.0000 H   0  0  0  0  0  0  0  0  0  0  0  0
   17.8357    3.7209    0.0000 H   0  0  0  0  0  0  0  0  0  0  0  0
   16.3044   -0.7549    0.0000 H   0  0  0  0  0  0  0  0  0  0  0  0
   18.4010   -0.4083    0.0000 H   0  0  0  0  0  0  0  0  0  0  0  0
   18.8048    0.2789    0.0000 H   0  0  0  0  0  0  0  0  0  0  0  0
   19.6257    0.6410    0.0000 H   0  0  0  0  0  0  0  0  0  0  0  0
   20.4237    0.6195    0.0000 H   0  0  0  0  0  0  0  0  0  0  0  0
   15.9875    2.1974    0.0000 H   0  0  0  0  0  0  0  0  0  0  0  0
   15.1894    2.2128    0.0000 H   0  0  0  0  0  0  0  0  0  0  0  0
   17.1801    2.8484    0.0000 H   0  0  0  0  0  0  0  0  0  0  0  0
   16.3073    2.9315    0.0000 H   0  0  0  0  0  0  0  0  0  0  0  0
   16.2241    2.0587    0.0000 H   0  0  0  0  0  0  0  0  0  0  0  0
   14.4648    1.8092    0.0000 H   0  0  0  0  0  0  0  0  0  0  0  0
   14.0577    1.1226    0.0000 H   0  0  0  0  0  0  0  0  0  0  0  0
   21.5388    2.3928    0.0000 H   0  0  0  0  0  0  0  0  0  0  0  0
   17.3188   -0.9374    0.0000 H   0  0  0  0  0  0  0  0  0  0  0  0
   18.4797    0.6854    0.0000 H   0  0  0  0  0  0  0  0  0  0  0  0
   19.0900    0.0559    0.0000 H   0  0  0  0  0  0  0  0  0  0  0  0
   19.7195    0.6663    0.0000 H   0  0  0  0  0  0  0  0  0  0  0  0
   20.9762    1.0053    0.0000 H   0  0  0  0  0  0  0  0  0  0  0  0
   16.7186    2.3391    0.0000 H   0  0  0  0  0  0  0  0  0  0  0  0
   15.9268    2.7158    0.0000 H   0  0  0  0  0  0  0  0  0  0  0  0
   15.5501    1.9240    0.0000 H   0  0  0  0  0  0  0  0  0  0  0  0
   15.5861   -2.0433    0.0000 H   0  0  0  0  0  0  0  0  0  0  0  0
   13.5089    0.2397    0.0000 H   0  0  0  0  0  0  0  0  0  0  0  0
   13.1018   -0.4470    0.0000 H   0  0  0  0  0  0  0  0  0  0  0  0
   14.1083   -2.2841    0.0000 H   0  0  0  0  0  0  0  0  0  0  0  0
   21.1098    3.8117    0.0000 H   0  0  0  0  0  0  0  0  0  0  0  0
   20.8861    4.6595    0.0000 H   0  0  0  0  0  0  0  0  0  0  0  0
   20.0383    4.4359    0.0000 H   0  0  0  0  0  0  0  0  0  0  0  0
   20.1122    4.4356    0.0000 H   0  0  0  0  0  0  0  0  0  0  0  0
   19.2661    4.6658    0.0000 H   0  0  0  0  0  0  0  0  0  0  0  0
   19.0359    3.8197    0.0000 H   0  0  0  0  0  0  0  0  0  0  0  0
   13.0950   -1.3198    0.0000 H   0  0  0  0  0  0  0  0  0  0  0  0
   13.4915   -2.0126    0.0000 H   0  0  0  0  0  0  0  0  0  0  0  0
   16.1481   -2.4538    0.0000 H   0  0  0  0  0  0  0  0  0  0  0  0
   16.9923   -2.2171    0.0000 H   0  0  0  0  0  0  0  0  0  0  0  0
   16.7556   -1.3728    0.0000 H   0  0  0  0  0  0  0  0  0  0  0  0
   22.4112    2.8838    0.0000 H   0  0  0  0  0  0  0  0  0  0  0  0
   21.8337    0.4886    0.0000 H   0  0  0  0  0  0  0  0  0  0  0  0
   14.0285   -2.9754    0.0000 H   0  0  0  0  0  0  0  0  0  0  0  0
   14.6509   -3.5931    0.0000 H   0  0  0  0  0  0  0  0  0  0  0  0
   15.2685   -2.9707    0.0000 H   0  0  0  0  0  0  0  0  0  0  0  0
   12.6002    0.9923    0.0000 H   0  0  0  0  0  0  0  0  0  0  0  0
   12.0632    2.3023    0.0000 H   0  0  0  0  0  0  0  0  0  0  0  0
   10.6603    2.4923    0.0000 H   0  0  0  0  0  0  0  0  0  0  0  0
   10.3312    0.0623    0.0000 H   0  0  0  0  0  0  0  0  0  0  0  0
   10.3312    2.3023    0.0000 H   0  0  0  0  0  0  0  0  0  0  0  0
   12.9292    2.8023    0.0000 H   0  0  0  0  0  0  0  0  0  0  0  0
    9.2531    0.7649    0.0000 H   0  0  0  0  0  0  0  0  0  0  0  0
    8.8546    0.0747    0.0000 H   0  0  0  0  0  0  0  0  0  0  0  0
   11.7341    3.4923    0.0000 H   0  0  0  0  0  0  0  0  0  0  0  0
    9.4651    2.8023    0.0000 H   0  0  0  0  0  0  0  0  0  0  0  0
    8.5991   -0.6977    0.0000 H   0  0  0  0  0  0  0  0  0  0  0  0
    8.5991   -2.9377    0.0000 H   0  0  0  0  0  0  0  0  0  0  0  0
    7.1962   -3.1277    0.0000 H   0  0  0  0  0  0  0  0  0  0  0  0
    6.8671   -0.6977    0.0000 H   0  0  0  0  0  0  0  0  0  0  0  0
    6.3301   -2.0077    0.0000 H   0  0  0  0  0  0  0  0  0  0  0  0
   10.0021   -2.5077    0.0000 H   0  0  0  0  0  0  0  0  0  0  0  0
    5.3905   -0.7100    0.0000 H   0  0  0  0  0  0  0  0  0  0  0  0
    5.7890   -1.4003    0.0000 H   0  0  0  0  0  0  0  0  0  0  0  0
    8.2700   -4.1277    0.0000 H   0  0  0  0  0  0  0  0  0  0  0  0
    5.1350   -2.9377    0.0000 H   0  0  0  0  0  0  0  0  0  0  0  0
    3.7320   -3.1277    0.0000 H   0  0  0  0  0  0  0  0  0  0  0  0
    6.5380    0.4923    0.0000 H   0  0  0  0  0  0  0  0  0  0  0  0
    2.8660   -2.0077    0.0000 H   0  0  0  0  0  0  0  0  0  0  0  0
    4.8059   -0.5077    0.0000 H   0  0  0  0  0  0  0  0  0  0  0  0
    3.4030   -0.6977    0.0000 H   0  0  0  0  0  0  0  0  0  0  0  0
    4.8890    0.1823    0.0000 H   0  0  0  0  0  0  0  0  0  0  0  0
    4.2690    0.8023    0.0000 H   0  0  0  0  0  0  0  0  0  0  0  0
    3.6490    0.1823    0.0000 H   0  0  0  0  0  0  0  0  0  0  0  0
    3.7320   -4.1277    0.0000 H   0  0  0  0  0  0  0  0  0  0  0  0
    2.0000   -2.5077    0.0000 H   0  0  0  0  0  0  0  0  0  0  0  0
    2.5369   -0.1977    0.0000 H   0  0  0  0  0  0  0  0  0  0  0  0
 35  1  1  1  0  0  0
  1109  1  0  0  0  0
 38  2  1  6  0  0  0
  2110  1  0  0  0  0
  3 46  1  0  0  0  0
 49  3  1  6  0  0  0
  4 46  2  0  0  0  0
  5 49  1  0  0  0  0
  5 52  1  0  0  0  0
 50  6  1  1  0  0  0
  6119  1  0  0  0  0
 51  7  1  6  0  0  0
  7122  1  0  0  0  0
 53  8  1  1  0  0  0
  8123  1  0  0  0  0
  9 54  1  0  0  0  0
 55  9  1  1  0  0  0
 10 55  1  0  0  0  0
 10 58  1  0  0  0  0
 56 11  1  6  0  0  0
 11129  1  0  0  0  0
 59 12  1  6  0  0  0
 61 12  1  1  0  0  0
 57 13  1  1  0  0  0
 13132  1  0  0  0  0
 14 60  1  0  0  0  0
 14135  1  0  0  0  0
 15 61  1  0  0  0  0
 15 64  1  0  0  0  0
 62 16  1  6  0  0  0
 16142  1  0  0  0  0
 63 17  1  6  0  0  0
 17143  1  0  0  0  0
 65 18  1  1  0  0  0
 18144  1  0  0  0  0
 19 20  1  0  0  0  0
 19 22  1  0  0  0  0
 19 24  1  0  0  0  0
 19 33  1  1  0  0  0
 20 21  1  0  0  0  0
 20 29  1  0  0  0  0
 20 67  1  6  0  0  0
 21 23  1  0  0  0  0
 21 30  1  0  0  0  0
 21 37  1  1  0  0  0
 22 25  1  0  0  0  0
 22 31  1  0  0  0  0
 22 39  1  6  0  0  0
 23 26  1  0  0  0  0
 23 27  1  0  0  0  0
 23 68  1  6  0  0  0
 24 26  1  0  0  0  0
 24 69  1  0  0  0  0
 24 70  1  0  0  0  0
 25 28  1  0  0  0  0
 25 36  2  0  0  0  0
 26 71  1  0  0  0  0
 26 72  1  0  0  0  0
 27 35  1  0  0  0  0
 27 43  1  0  0  0  0
 27 44  1  0  0  0  0
 28 32  1  0  0  0  0
 28 40  1  0  0  0  0
 28 73  1  1  0  0  0
 29 36  1  0  0  0  0
 29 74  1  0  0  0  0
 29 75  1  0  0  0  0
 30 38  1  0  0  0  0
 30 76  1  0  0  0  0
 30 77  1  0  0  0  0
 31 34  1  0  0  0  0
 31 78  1  0  0  0  0
 31 79  1  0  0  0  0
 32 34  1  0  0  0  0
 32 41  1  0  0  0  0
 32 46  1  1  0  0  0
 33 80  1  0  0  0  0
 33 81  1  0  0  0  0
 33 82  1  0  0  0  0
 34 83  1  0  0  0  0
 34 84  1  0  0  0  0
 35 38  1  0  0  0  0
 35 85  1  0  0  0  0
 36 86  1  0  0  0  0
 37 87  1  0  0  0  0
 37 88  1  0  0  0  0
 37 89  1  0  0  0  0
 38 90  1  0  0  0  0
 39 91  1  0  0  0  0
 39 92  1  0  0  0  0
 39 93  1  0  0  0  0
 40 42  1  0  0  0  0
 40 47  1  1  0  0  0
 40 94  1  0  0  0  0
 41 45  1  0  0  0  0
 41 95  1  0  0  0  0
 41 96  1  0  0  0  0
 42 45  1  0  0  0  0
 42 48  1  6  0  0  0
 42 97  1  0  0  0  0
 43 98  1  0  0  0  0
 43 99  1  0  0  0  0
 43100  1  0  0  0  0
 44101  1  0  0  0  0
 44102  1  0  0  0  0
 44103  1  0  0  0  0
 45104  1  0  0  0  0
 45105  1  0  0  0  0
 47106  1  0  0  0  0
 47107  1  0  0  0  0
 47108  1  0  0  0  0
 48111  1  0  0  0  0
 48112  1  0  0  0  0
 48113  1  0  0  0  0
 49 50  1  0  0  0  0
 49114  1  0  0  0  0
 50 51  1  0  0  0  0
 50115  1  0  0  0  0
 51 53  1  0  0  0  0
 51116  1  0  0  0  0
 52 53  1  0  0  0  0
 52 54  1  6  0  0  0
 52117  1  0  0  0  0
 53118  1  0  0  0  0
 54120  1  0  0  0  0
 54121  1  0  0  0  0
 55 56  1  0  0  0  0
 55124  1  0  0  0  0
 56 57  1  0  0  0  0
 56125  1  0  0  0  0
 57 59  1  0  0  0  0
 57126  1  0  0  0  0
 58 59  1  0  0  0  0
 58 60  1  1  0  0  0
 58127  1  0  0  0  0
 59128  1  0  0  0  0
 60130  1  0  0  0  0
 60131  1  0  0  0  0
 61 62  1  0  0  0  0
 61133  1  0  0  0  0
 62 63  1  0  0  0  0
 62134  1  0  0  0  0
 63 65  1  0  0  0  0
 63136  1  0  0  0  0
 64 65  1  0  0  0  0
 64 66  1  6  0  0  0
 64137  1  0  0  0  0
 65138  1  0  0  0  0
 66139  1  0  0  0  0
 66140  1  0  0  0  0
 66141  1  0  0  0  0
M  END
> <PUBCHEM_COMPOUND_CID>
102212084

> <PUBCHEM_COMPOUND_CANONICALIZED>
1

> <PUBCHEM_CACTVS_COMPLEXITY>
1800

> <PUBCHEM_CACTVS_HBOND_ACCEPTOR>
18

> <PUBCHEM_CACTVS_HBOND_DONOR>
11

> <PUBCHEM_CACTVS_ROTATABLE_BOND>
9

> <PUBCHEM_CACTVS_SUBSKEYS>
AAADcfB8PgAAAAAAAAAAAAAAAAAAAAAAAAA0aNGCAAAAAADAAAAAGgAACAAADxSwgAMCCAAABgCIAiDSCAAAAAAgAAAACAEAAAgREBIAAQAiQAAFgAAPAAPI6PyPgAAAAAAAAADAAAYAADCAAAAAAAAAAA==

> <PUBCHEM_IUPAC_OPENEYE_NAME>
[(2S,3R,4S,5S,6R)-6-[[(2R,3R,4R,5S,6R)-3,4-dihydroxy-6-(hydroxymethyl)-5-[(2S,3R,4R,5R,6S)-3,4,5-trihydroxy-6-methyl-tetrahydropyran-2-yl]oxy-tetrahydropyran-2-yl]oxymethyl]-3,4,5-trihydroxy-tetrahydropyran-2-yl] (1S,2R,4aS,6aR,6aS,6bR,8aR,10R,11R,12aR,14bS)-10,11-dihydroxy-1,2,6a,6b,9,9,12a-heptamethyl-2,3,4,5,6,6a,7,8,8a,10,11,12,13,14b-tetradecahydro-1H-picene-4a-carboxylate

> <PUBCHEM_IUPAC_CAS_NAME>
(1S,2R,4aS,6aR,6aS,6bR,8aR,10R,11R,12aR,14bS)-10,11-dihydroxy-1,2,6a,6b,9,9,12a-heptamethyl-2,3,4,5,6,6a,7,8,8a,10,11,12,13,14b-tetradecahydro-1H-picene-4a-carboxylic acid [(2S,3R,4S,5S,6R)-6-[[(2R,3R,4R,5S,6R)-3,4-dihydroxy-6-(hydroxymethyl)-5-[[(2S,3R,4R,5R,6S)-3,4,5-trihydroxy-6-methyl-2-oxanyl]oxy]-2-oxanyl]oxymethyl]-3,4,5-trihydroxy-2-oxanyl] ester

> <PUBCHEM_IUPAC_NAME_MARKUP>
[(2<I>S</I>,3<I>R</I>,4<I>S</I>,5<I>S</I>,6<I>R</I>)-6-[[(2<I>R</I>,3<I>R</I>,4<I>R</I>,5<I>S</I>,6<I>R</I>)-3,4-dihydroxy-6-(hydroxymethyl)-5-[(2<I>S</I>,3<I>R</I>,4<I>R</I>,5<I>R</I>,6<I>S</I>)-3,4,5-trihydroxy-6-methyloxan-2-yl]oxyoxan-2-yl]oxymethyl]-3,4,5-trihydroxyoxan-2-yl] (1<I>S</I>,2<I>R</I>,4<I>a</I><I>S</I>,6<I>a</I><I>R</I>,6<I>a</I><I>S</I>,6<I>b</I><I>R</I>,8<I>a</I><I>R</I>,10<I>R</I>,11<I>R</I>,12<I>a</I><I>R</I>,14<I>b</I><I>S</I>)-10,11-dihydroxy-1,2,6<I>a</I>,6<I>b</I>,9,9,12<I>a</I>-heptamethyl-2,3,4,5,6,6<I>a</I>,7,8,8<I>a</I>,10,11,12,13,14<I>b</I>-tetradecahydro-1<I>H</I>-picene-4<I>a</I>-carboxylate

> <PUBCHEM_IUPAC_NAME>
[(2S,3R,4S,5S,6R)-6-[[(2R,3R,4R,5S,6R)-3,4-dihydroxy-6-(hydroxymethyl)-5-[(2S,3R,4R,5R,6S)-3,4,5-trihydroxy-6-methyloxan-2-yl]oxyoxan-2-yl]oxymethyl]-3,4,5-trihydroxyoxan-2-yl] (1S,2R,4aS,6aR,6aS,6bR,8aR,10R,11R,12aR,14bS)-10,11-dihydroxy-1,2,6a,6b,9,9,12a-heptamethyl-2,3,4,5,6,6a,7,8,8a,10,11,12,13,14b-tetradecahydro-1H-picene-4a-carboxylate

> <PUBCHEM_IUPAC_SYSTEMATIC_NAME>
[(2S,3R,4S,5S,6R)-6-[[(2R,3R,4R,5S,6R)-6-(hydroxymethyl)-5-[(2S,3R,4R,5R,6S)-6-methyl-3,4,5-tris(oxidanyl)oxan-2-yl]oxy-3,4-bis(oxidanyl)oxan-2-yl]oxymethyl]-3,4,5-tris(oxidanyl)oxan-2-yl] (1S,2R,4aS,6aR,6aS,6bR,8aR,10R,11R,12aR,14bS)-1,2,6a,6b,9,9,12a-heptamethyl-10,11-bis(oxidanyl)-2,3,4,5,6,6a,7,8,8a,10,11,12,13,14b-tetradecahydro-1H-picene-4a-carboxylate

> <PUBCHEM_IUPAC_TRADITIONAL_NAME>
(1S,2R,4aS,6aR,6aS,6bR,8aR,10R,11R,12aR,14bS)-10,11-dihydroxy-1,2,6a,6b,9,9,12a-heptamethyl-2,3,4,5,6,6a,7,8,8a,10,11,12,13,14b-tetradecahydro-1H-picene-4a-carboxylic acid [(2S,3R,4S,5S,6R)-6-[[(2R,3R,4R,5S,6R)-3,4-dihydroxy-6-methylol-5-[(2S,3R,4R,5R,6S)-3,4,5-trihydroxy-6-methyl-tetrahydropyran-2-yl]oxy-tetrahydropyran-2-yl]oxymethyl]-3,4,5-trihydroxy-tetrahydropyran-2-yl] ester

> <PUBCHEM_IUPAC_INCHI>
InChI=1S/C48H78O18/c1-20-11-14-48(16-15-46(7)23(29(48)21(20)2)9-10-28-45(6)17-24(50)39(59)44(4,5)27(45)12-13-47(28,46)8)43(60)66-42-36(57)33(54)31(52)26(64-42)19-61-40-37(58)34(55)38(25(18-49)63-40)65-41-35(56)32(53)30(51)22(3)62-41/h9,20-22,24-42,49-59H,10-19H2,1-8H3/t20-,21+,22+,24-,25-,26-,27+,28-,29+,30+,31-,32-,33+,34-,35-,36-,37-,38-,39+,40-,41+,42+,45+,46-,47-,48+/m1/s1

> <PUBCHEM_IUPAC_INCHIKEY>
SDRICUDLBWDVDW-QUVRKVDJSA-N

> <PUBCHEM_XLOGP3_AA>
0.8

> <PUBCHEM_EXACT_MASS>
942.518816

> <PUBCHEM_MOLECULAR_FORMULA>
C48H78O18

> <PUBCHEM_MOLECULAR_WEIGHT>
943.1

> <PUBCHEM_OPENEYE_CAN_SMILES>
CC1CCC2(CCC3(C(=CCC4C3(CCC5C4(CC(C(C5(C)C)O)O)C)C)C2C1C)C)C(=O)OC6C(C(C(C(O6)COC7C(C(C(C(O7)CO)OC8C(C(C(C(O8)C)O)O)O)O)O)O)O)O

> <PUBCHEM_OPENEYE_ISO_SMILES>
C[C@@H]1CC[C@@]2(CC[C@@]3(C(=CC[C@H]4[C@]3(CC[C@@H]5[C@@]4(C[C@H]([C@@H](C5(C)C)O)O)C)C)[C@@H]2[C@H]1C)C)C(=O)O[C@H]6[C@@H]([C@H]([C@@H]([C@H](O6)CO[C@H]7[C@@H]([C@H]([C@@H]([C@H](O7)CO)O[C@H]8[C@@H]([C@@H]([C@H]([C@@H](O8)C)O)O)O)O)O)O)O)O

> <PUBCHEM_CACTVS_TPSA>
295

> <PUBCHEM_MONOISOTOPIC_WEIGHT>
942.518816

> <PUBCHEM_TOTAL_CHARGE>
0

> <PUBCHEM_HEAVY_ATOM_COUNT>
66

> <PUBCHEM_ATOM_DEF_STEREO_COUNT>
26

> <PUBCHEM_ATOM_UDEF_STEREO_COUNT>
0

> <PUBCHEM_BOND_DEF_STEREO_COUNT>
0

> <PUBCHEM_BOND_UDEF_STEREO_COUNT>
0

> <PUBCHEM_ISOTOPIC_ATOM_COUNT>
0

> <PUBCHEM_COMPONENT_COUNT>
1

> <PUBCHEM_CACTVS_TAUTO_COUNT>
-1

> <PUBCHEM_COORDINATE_TYPE>
1
5
255

> <PUBCHEM_BONDANNOTATIONS>
35  1  5
56  11  6
59  12  6
61  12  5
57  13  5
62  16  6
63  17  6
65  18  5
19  33  5
38  2  6
20  67  6
21  37  5
22  39  6
23  68  6
28  73  5
49  3  6
32  46  5
40  47  5
42  48  6
52  54  6
58  60  5
50  6  5
64  66  6
51  7  6
53  8  5
55  9  5

$$$$
