73816484
  -OEChem-11212001242D

145152  0     1  0  0  0  0  0999 V2000
   21.8779    2.5000    0.0000 O   0  0  0  0  0  0  0  0  0  0  0  0
   21.8456    0.4086    0.0000 O   0  0  0  0  0  0  0  0  0  0  0  0
   20.0774    4.2918    0.0000 O   0  0  0  0  0  0  0  0  0  0  0  0
   12.9292   -0.5176    0.0000 O   0  0  0  0  0  0  0  0  0  0  0  0
   13.7953    0.9824    0.0000 O   0  0  0  0  0  0  0  0  0  0  0  0
   11.1972   -0.5176    0.0000 O   0  0  0  0  0  0  0  0  0  0  0  0
   12.9292    1.4824    0.0000 O   0  0  0  0  0  0  0  0  0  0  0  0
   11.1972    2.4824    0.0000 O   0  0  0  0  0  0  0  0  0  0  0  0
    9.4651    1.4824    0.0000 O   0  0  0  0  0  0  0  0  0  0  0  0
    9.4651   -1.5176    0.0000 O   0  0  0  0  0  0  0  0  0  0  0  0
    7.7331   -1.5176    0.0000 O   0  0  0  0  0  0  0  0  0  0  0  0
    9.4651   -3.5176    0.0000 O   0  0  0  0  0  0  0  0  0  0  0  0
    6.0010   -3.5176    0.0000 O   0  0  0  0  0  0  0  0  0  0  0  0
    7.7331   -4.5176    0.0000 O   0  0  0  0  0  0  0  0  0  0  0  0
    6.0010   -0.5176    0.0000 O   0  0  0  0  0  0  0  0  0  0  0  0
    5.1350   -2.0176    0.0000 O   0  0  0  0  0  0  0  0  0  0  0  0
    4.2690   -4.5176    0.0000 O   0  0  0  0  0  0  0  0  0  0  0  0
    2.5369   -3.5176    0.0000 O   0  0  0  0  0  0  0  0  0  0  0  0
    2.5369   -1.5176    0.0000 O   0  0  0  0  0  0  0  0  0  0  0  0
   17.3390    0.9826    0.0000 C   0  0  3  0  0  0  0  0  0  0  0  0
   18.2011    0.4760    0.0000 C   0  0  3  0  0  0  0  0  0  0  0  0
   19.1150    0.9758    0.0000 C   0  0  3  0  0  0  0  0  0  0  0  0
   19.1311    2.0173    0.0000 C   0  0  3  0  0  0  0  0  0  0  0  0
   16.4691    0.4893    0.0000 C   0  0  3  0  0  0  0  0  0  0  0  0
   17.3309    2.0242    0.0000 C   0  0  0  0  0  0  0  0  0  0  0  0
   20.0707    2.5598    0.0000 C   0  0  3  0  0  0  0  0  0  0  0  0
   18.2330    2.5451    0.0000 C   0  0  0  0  0  0  0  0  0  0  0  0
   18.1934   -0.5240    0.0000 C   0  0  0  0  0  0  0  0  0  0  0  0
   20.0375    0.4046    0.0000 C   0  0  0  0  0  0  0  0  0  0  0  0
   16.4614   -0.5106    0.0000 C   0  0  0  0  0  0  0  0  0  0  0  0
   15.5793    1.0309    0.0000 C   0  0  0  0  0  0  0  0  0  0  0  0
   17.3236   -1.0173    0.0000 C   0  0  0  0  0  0  0  0  0  0  0  0
   21.0061    2.0101    0.0000 C   0  0  3  0  0  0  0  0  0  0  0  0
   16.7021    1.7536    0.0000 C   0  0  0  0  0  0  0  0  0  0  0  0
   20.9894    0.9252    0.0000 C   0  0  3  0  0  0  0  0  0  0  0  0
   19.0996   -0.0241    0.0000 C   0  0  0  0  0  0  0  0  0  0  0  0
   14.6613   -0.5176    0.0000 C   0  0  3  0  0  0  0  0  0  0  0  0
   15.5634   -1.0384    0.0000 C   0  0  0  0  0  0  0  0  0  0  0  0
   14.6693    0.5240    0.0000 C   0  0  0  0  0  0  0  0  0  0  0  0
   16.1343    1.4316    0.0000 C   0  0  0  0  0  0  0  0  0  0  0  0
   20.5740    3.4239    0.0000 C   0  0  0  0  0  0  0  0  0  0  0  0
   19.5740    3.4278    0.0000 C   0  0  0  0  0  0  0  0  0  0  0  0
   15.5801   -2.1233    0.0000 C   0  0  0  0  0  0  0  0  0  0  0  0
   13.7134   -1.0455    0.0000 C   0  0  0  0  0  0  0  0  0  0  0  0
   14.6447   -2.6730    0.0000 C   0  0  0  0  0  0  0  0  0  0  0  0
   13.7050   -2.1305    0.0000 C   0  0  0  0  0  0  0  0  0  0  0  0
   13.7953   -0.0176    0.0000 C   0  0  0  0  0  0  0  0  0  0  0  0
   15.1480   -3.5371    0.0000 C   0  0  0  0  0  0  0  0  0  0  0  0
   14.1480   -3.5409    0.0000 C   0  0  0  0  0  0  0  0  0  0  0  0
   12.0632   -0.0176    0.0000 C   0  0  3  0  0  0  0  0  0  0  0  0
   12.0632    0.9824    0.0000 C   0  0  3  0  0  0  0  0  0  0  0  0
   11.1972    1.4824    0.0000 C   0  0  3  0  0  0  0  0  0  0  0  0
   10.3312   -0.0176    0.0000 C   0  0  3  0  0  0  0  0  0  0  0  0
   10.3312    0.9824    0.0000 C   0  0  3  0  0  0  0  0  0  0  0  0
    9.4651   -0.5176    0.0000 C   0  0  0  0  0  0  0  0  0  0  0  0
    8.5991   -2.0176    0.0000 C   0  0  3  0  0  0  0  0  0  0  0  0
    8.5991   -3.0176    0.0000 C   0  0  3  0  0  0  0  0  0  0  0  0
    7.7331   -3.5176    0.0000 C   0  0  3  0  0  0  0  0  0  0  0  0
    6.8671   -2.0176    0.0000 C   0  0  3  0  0  0  0  0  0  0  0  0
    6.8671   -3.0176    0.0000 C   0  0  3  0  0  0  0  0  0  0  0  0
    6.0010   -1.5176    0.0000 C   0  0  0  0  0  0  0  0  0  0  0  0
    5.1350   -3.0176    0.0000 C   0  0  3  0  0  0  0  0  0  0  0  0
    4.2690   -3.5176    0.0000 C   0  0  3  0  0  0  0  0  0  0  0  0
    3.4030   -3.0176    0.0000 C   0  0  3  0  0  0  0  0  0  0  0  0
    4.2690   -1.5176    0.0000 C   0  0  3  0  0  0  0  0  0  0  0  0
    3.4030   -2.0176    0.0000 C   0  0  3  0  0  0  0  0  0  0  0  0
    4.2690   -0.5176    0.0000 C   0  0  0  0  0  0  0  0  0  0  0  0
   18.7332    0.1577    0.0000 H   0  0  0  0  0  0  0  0  0  0  0  0
   19.1334    2.6373    0.0000 H   0  0  0  0  0  0  0  0  0  0  0  0
   17.1174    2.6063    0.0000 H   0  0  0  0  0  0  0  0  0  0  0  0
   16.7209    1.9134    0.0000 H   0  0  0  0  0  0  0  0  0  0  0  0
   18.6340    3.0180    0.0000 H   0  0  0  0  0  0  0  0  0  0  0  0
   17.8357    3.0210    0.0000 H   0  0  0  0  0  0  0  0  0  0  0  0
   18.4010   -1.1082    0.0000 H   0  0  0  0  0  0  0  0  0  0  0  0
   18.8048   -0.4210    0.0000 H   0  0  0  0  0  0  0  0  0  0  0  0
   19.6257   -0.0589    0.0000 H   0  0  0  0  0  0  0  0  0  0  0  0
   20.4237   -0.0804    0.0000 H   0  0  0  0  0  0  0  0  0  0  0  0
   15.9875    1.4975    0.0000 H   0  0  0  0  0  0  0  0  0  0  0  0
   15.1894    1.5129    0.0000 H   0  0  0  0  0  0  0  0  0  0  0  0
   16.9214   -1.4892    0.0000 H   0  0  0  0  0  0  0  0  0  0  0  0
   17.7184   -1.4953    0.0000 H   0  0  0  0  0  0  0  0  0  0  0  0
   21.5388    1.6929    0.0000 H   0  0  0  0  0  0  0  0  0  0  0  0
   17.1801    2.1485    0.0000 H   0  0  0  0  0  0  0  0  0  0  0  0
   16.3073    2.2316    0.0000 H   0  0  0  0  0  0  0  0  0  0  0  0
   16.2241    1.3588    0.0000 H   0  0  0  0  0  0  0  0  0  0  0  0
   20.9762    0.3054    0.0000 H   0  0  0  0  0  0  0  0  0  0  0  0
   18.4797   -0.0145    0.0000 H   0  0  0  0  0  0  0  0  0  0  0  0
   19.0900   -0.6440    0.0000 H   0  0  0  0  0  0  0  0  0  0  0  0
   19.7195   -0.0336    0.0000 H   0  0  0  0  0  0  0  0  0  0  0  0
   14.4648    1.1093    0.0000 H   0  0  0  0  0  0  0  0  0  0  0  0
   14.0577    0.4226    0.0000 H   0  0  0  0  0  0  0  0  0  0  0  0
   16.7186    1.6392    0.0000 H   0  0  0  0  0  0  0  0  0  0  0  0
   15.9268    2.0159    0.0000 H   0  0  0  0  0  0  0  0  0  0  0  0
   15.5501    1.2241    0.0000 H   0  0  0  0  0  0  0  0  0  0  0  0
   21.0474    3.0235    0.0000 H   0  0  0  0  0  0  0  0  0  0  0  0
   21.0505    3.8206    0.0000 H   0  0  0  0  0  0  0  0  0  0  0  0
   20.1122    3.7357    0.0000 H   0  0  0  0  0  0  0  0  0  0  0  0
   19.2661    3.9659    0.0000 H   0  0  0  0  0  0  0  0  0  0  0  0
   19.0359    3.1198    0.0000 H   0  0  0  0  0  0  0  0  0  0  0  0
   15.7981   -2.7037    0.0000 H   0  0  0  0  0  0  0  0  0  0  0  0
   16.1892   -2.0078    0.0000 H   0  0  0  0  0  0  0  0  0  0  0  0
   13.5089   -0.4602    0.0000 H   0  0  0  0  0  0  0  0  0  0  0  0
   13.1018   -1.1469    0.0000 H   0  0  0  0  0  0  0  0  0  0  0  0
   13.0950   -2.0197    0.0000 H   0  0  0  0  0  0  0  0  0  0  0  0
   13.4915   -2.7125    0.0000 H   0  0  0  0  0  0  0  0  0  0  0  0
   22.4112    2.1838    0.0000 H   0  0  0  0  0  0  0  0  0  0  0  0
   21.8337   -0.2113    0.0000 H   0  0  0  0  0  0  0  0  0  0  0  0
   14.6123   -3.8491    0.0000 H   0  0  0  0  0  0  0  0  0  0  0  0
   15.4601   -4.0728    0.0000 H   0  0  0  0  0  0  0  0  0  0  0  0
   15.6837   -3.2250    0.0000 H   0  0  0  0  0  0  0  0  0  0  0  0
   13.6099   -3.2330    0.0000 H   0  0  0  0  0  0  0  0  0  0  0  0
   13.8401   -4.0790    0.0000 H   0  0  0  0  0  0  0  0  0  0  0  0
   14.6861   -3.8489    0.0000 H   0  0  0  0  0  0  0  0  0  0  0  0
   20.3894    4.8276    0.0000 H   0  0  0  0  0  0  0  0  0  0  0  0
   12.6002    0.2924    0.0000 H   0  0  0  0  0  0  0  0  0  0  0  0
   12.0632    1.6024    0.0000 H   0  0  0  0  0  0  0  0  0  0  0  0
   10.6603    1.7924    0.0000 H   0  0  0  0  0  0  0  0  0  0  0  0
   10.3312   -0.6376    0.0000 H   0  0  0  0  0  0  0  0  0  0  0  0
    9.7942    0.6724    0.0000 H   0  0  0  0  0  0  0  0  0  0  0  0
   12.9292    2.1024    0.0000 H   0  0  0  0  0  0  0  0  0  0  0  0
    9.2531    0.0650    0.0000 H   0  0  0  0  0  0  0  0  0  0  0  0
    8.8546   -0.6252    0.0000 H   0  0  0  0  0  0  0  0  0  0  0  0
   11.7341    2.7924    0.0000 H   0  0  0  0  0  0  0  0  0  0  0  0
    9.4651    2.1024    0.0000 H   0  0  0  0  0  0  0  0  0  0  0  0
    8.5991   -1.3976    0.0000 H   0  0  0  0  0  0  0  0  0  0  0  0
    8.5991   -3.6376    0.0000 H   0  0  0  0  0  0  0  0  0  0  0  0
    7.1962   -3.8276    0.0000 H   0  0  0  0  0  0  0  0  0  0  0  0
    6.8671   -1.3976    0.0000 H   0  0  0  0  0  0  0  0  0  0  0  0
    6.3301   -2.7076    0.0000 H   0  0  0  0  0  0  0  0  0  0  0  0
   10.0021   -3.2076    0.0000 H   0  0  0  0  0  0  0  0  0  0  0  0
    5.3905   -1.4099    0.0000 H   0  0  0  0  0  0  0  0  0  0  0  0
    5.7890   -2.1002    0.0000 H   0  0  0  0  0  0  0  0  0  0  0  0
    8.2700   -4.8276    0.0000 H   0  0  0  0  0  0  0  0  0  0  0  0
    5.1350   -3.6376    0.0000 H   0  0  0  0  0  0  0  0  0  0  0  0
    3.7320   -3.8276    0.0000 H   0  0  0  0  0  0  0  0  0  0  0  0
    2.8660   -2.7076    0.0000 H   0  0  0  0  0  0  0  0  0  0  0  0
    6.5380   -0.2076    0.0000 H   0  0  0  0  0  0  0  0  0  0  0  0
    4.8059   -1.2076    0.0000 H   0  0  0  0  0  0  0  0  0  0  0  0
    3.4030   -1.3976    0.0000 H   0  0  0  0  0  0  0  0  0  0  0  0
    4.8890   -0.5176    0.0000 H   0  0  0  0  0  0  0  0  0  0  0  0
    4.2690    0.1024    0.0000 H   0  0  0  0  0  0  0  0  0  0  0  0
    3.6490   -0.5176    0.0000 H   0  0  0  0  0  0  0  0  0  0  0  0
    3.7320   -4.8276    0.0000 H   0  0  0  0  0  0  0  0  0  0  0  0
    2.0000   -3.2076    0.0000 H   0  0  0  0  0  0  0  0  0  0  0  0
    2.5369   -0.8976    0.0000 H   0  0  0  0  0  0  0  0  0  0  0  0
  1 33  1  0  0  0  0
  1106  1  0  0  0  0
  2 35  1  0  0  0  0
  2107  1  0  0  0  0
  3 41  1  0  0  0  0
  3114  1  0  0  0  0
  4 47  1  0  0  0  0
  4 50  1  0  0  0  0
  5 47  2  0  0  0  0
  6 50  1  0  0  0  0
  6 53  1  0  0  0  0
  7 51  1  0  0  0  0
  7120  1  0  0  0  0
  8 52  1  0  0  0  0
  8123  1  0  0  0  0
  9 54  1  0  0  0  0
  9124  1  0  0  0  0
 10 55  1  0  0  0  0
 10 56  1  0  0  0  0
 11 56  1  0  0  0  0
 11 59  1  0  0  0  0
 12 57  1  0  0  0  0
 12130  1  0  0  0  0
 13 60  1  0  0  0  0
 13 62  1  0  0  0  0
 14 58  1  0  0  0  0
 14133  1  0  0  0  0
 15 61  1  0  0  0  0
 15137  1  0  0  0  0
 16 62  1  0  0  0  0
 16 65  1  0  0  0  0
 17 63  1  0  0  0  0
 17143  1  0  0  0  0
 18 64  1  0  0  0  0
 18144  1  0  0  0  0
 19 66  1  0  0  0  0
 19145  1  0  0  0  0
 20 21  1  0  0  0  0
 20 24  1  0  0  0  0
 20 25  1  0  0  0  0
 20 34  1  0  0  0  0
 21 22  1  0  0  0  0
 21 28  1  0  0  0  0
 21 68  1  0  0  0  0
 22 23  1  0  0  0  0
 22 29  1  0  0  0  0
 22 36  1  0  0  0  0
 23 26  1  0  0  0  0
 23 27  1  0  0  0  0
 23 69  1  0  0  0  0
 24 30  1  0  0  0  0
 24 31  1  0  0  0  0
 24 40  1  0  0  0  0
 25 27  1  0  0  0  0
 25 70  1  0  0  0  0
 25 71  1  0  0  0  0
 26 33  1  0  0  0  0
 26 41  1  0  0  0  0
 26 42  1  0  0  0  0
 27 72  1  0  0  0  0
 27 73  1  0  0  0  0
 28 32  1  0  0  0  0
 28 74  1  0  0  0  0
 28 75  1  0  0  0  0
 29 35  1  0  0  0  0
 29 76  1  0  0  0  0
 29 77  1  0  0  0  0
 30 32  1  0  0  0  0
 30 38  2  0  0  0  0
 31 39  1  0  0  0  0
 31 78  1  0  0  0  0
 31 79  1  0  0  0  0
 32 80  1  0  0  0  0
 32 81  1  0  0  0  0
 33 35  1  0  0  0  0
 33 82  1  0  0  0  0
 34 83  1  0  0  0  0
 34 84  1  0  0  0  0
 34 85  1  0  0  0  0
 35 86  1  0  0  0  0
 36 87  1  0  0  0  0
 36 88  1  0  0  0  0
 36 89  1  0  0  0  0
 37 38  1  0  0  0  0
 37 39  1  0  0  0  0
 37 44  1  0  0  0  0
 37 47  1  0  0  0  0
 38 43  1  0  0  0  0
 39 90  1  0  0  0  0
 39 91  1  0  0  0  0
 40 92  1  0  0  0  0
 40 93  1  0  0  0  0
 40 94  1  0  0  0  0
 41 95  1  0  0  0  0
 41 96  1  0  0  0  0
 42 97  1  0  0  0  0
 42 98  1  0  0  0  0
 42 99  1  0  0  0  0
 43 45  1  0  0  0  0
 43100  1  0  0  0  0
 43101  1  0  0  0  0
 44 46  1  0  0  0  0
 44102  1  0  0  0  0
 44103  1  0  0  0  0
 45 46  1  0  0  0  0
 45 48  1  0  0  0  0
 45 49  1  0  0  0  0
 46104  1  0  0  0  0
 46105  1  0  0  0  0
 48108  1  0  0  0  0
 48109  1  0  0  0  0
 48110  1  0  0  0  0
 49111  1  0  0  0  0
 49112  1  0  0  0  0
 49113  1  0  0  0  0
 50 51  1  0  0  0  0
 50115  1  0  0  0  0
 51 52  1  0  0  0  0
 51116  1  0  0  0  0
 52 54  1  0  0  0  0
 52117  1  0  0  0  0
 53 54  1  0  0  0  0
 53 55  1  0  0  0  0
 53118  1  0  0  0  0
 54119  1  0  0  0  0
 55121  1  0  0  0  0
 55122  1  0  0  0  0
 56 57  1  0  0  0  0
 56125  1  0  0  0  0
 57 58  1  0  0  0  0
 57126  1  0  0  0  0
 58 60  1  0  0  0  0
 58127  1  0  0  0  0
 59 60  1  0  0  0  0
 59 61  1  0  0  0  0
 59128  1  0  0  0  0
 60129  1  0  0  0  0
 61131  1  0  0  0  0
 61132  1  0  0  0  0
 62 63  1  0  0  0  0
 62134  1  0  0  0  0
 63 64  1  0  0  0  0
 63135  1  0  0  0  0
 64 66  1  0  0  0  0
 64136  1  0  0  0  0
 65 66  1  0  0  0  0
 65 67  1  0  0  0  0
 65138  1  0  0  0  0
 66139  1  0  0  0  0
 67140  1  0  0  0  0
 67141  1  0  0  0  0
 67142  1  0  0  0  0
M  END
> <PUBCHEM_COMPOUND_CID>
73816484

> <PUBCHEM_COMPOUND_CANONICALIZED>
1

> <PUBCHEM_CACTVS_COMPLEXITY>
1850

> <PUBCHEM_CACTVS_HBOND_ACCEPTOR>
19

> <PUBCHEM_CACTVS_HBOND_DONOR>
12

> <PUBCHEM_CACTVS_ROTATABLE_BOND>
10

> <PUBCHEM_CACTVS_SUBSKEYS>
AAADcfB8PgAAAAAAAAAAAAAAAAAAAAAAAAA0aNGCAAAAAADAAAAAGgAACAAADxSwgAMCCAAABgCIAgDQCAAAAAAgAAAACAEAAAgREBIAAAAiQAAFwAAPAAPI6PyPgAAAAAAAAADAAAYAADCAAAAAAAAAAA==

> <PUBCHEM_IUPAC_OPENEYE_NAME>
[6-[[3,4-dihydroxy-6-(hydroxymethyl)-5-(3,4,5-trihydroxy-6-methyl-tetrahydropyran-2-yl)oxy-tetrahydropyran-2-yl]oxymethyl]-3,4,5-trihydroxy-tetrahydropyran-2-yl] 10,11-dihydroxy-9-(hydroxymethyl)-2,2,6a,6b,9,12a-hexamethyl-1,3,4,5,6,6a,7,8,8a,10,11,12,13,14-tetradecahydropicene-4a-carboxylate

> <PUBCHEM_IUPAC_CAS_NAME>
10,11-dihydroxy-9-(hydroxymethyl)-2,2,6a,6b,9,12a-hexamethyl-1,3,4,5,6,6a,7,8,8a,10,11,12,13,14-tetradecahydropicene-4a-carboxylic acid [6-[[3,4-dihydroxy-6-(hydroxymethyl)-5-[(3,4,5-trihydroxy-6-methyl-2-oxanyl)oxy]-2-oxanyl]oxymethyl]-3,4,5-trihydroxy-2-oxanyl] ester

> <PUBCHEM_IUPAC_NAME_MARKUP>
[6-[[3,4-dihydroxy-6-(hydroxymethyl)-5-(3,4,5-trihydroxy-6-methyloxan-2-yl)oxyoxan-2-yl]oxymethyl]-3,4,5-trihydroxyoxan-2-yl] 10,11-dihydroxy-9-(hydroxymethyl)-2,2,6<I>a</I>,6<I>b</I>,9,12<I>a</I>-hexamethyl-1,3,4,5,6,6<I>a</I>,7,8,8<I>a</I>,10,11,12,13,14-tetradecahydropicene-4<I>a</I>-carboxylate

> <PUBCHEM_IUPAC_NAME>
[6-[[3,4-dihydroxy-6-(hydroxymethyl)-5-(3,4,5-trihydroxy-6-methyloxan-2-yl)oxyoxan-2-yl]oxymethyl]-3,4,5-trihydroxyoxan-2-yl] 10,11-dihydroxy-9-(hydroxymethyl)-2,2,6a,6b,9,12a-hexamethyl-1,3,4,5,6,6a,7,8,8a,10,11,12,13,14-tetradecahydropicene-4a-carboxylate

> <PUBCHEM_IUPAC_SYSTEMATIC_NAME>
[6-[[6-(hydroxymethyl)-5-[6-methyl-3,4,5-tris(oxidanyl)oxan-2-yl]oxy-3,4-bis(oxidanyl)oxan-2-yl]oxymethyl]-3,4,5-tris(oxidanyl)oxan-2-yl] 9-(hydroxymethyl)-2,2,6a,6b,9,12a-hexamethyl-10,11-bis(oxidanyl)-1,3,4,5,6,6a,7,8,8a,10,11,12,13,14-tetradecahydropicene-4a-carboxylate

> <PUBCHEM_IUPAC_TRADITIONAL_NAME>
10,11-dihydroxy-2,2,6a,6b,9,12a-hexamethyl-9-methylol-1,3,4,5,6,6a,7,8,8a,10,11,12,13,14-tetradecahydropicene-4a-carboxylic acid [6-[[3,4-dihydroxy-6-methylol-5-(3,4,5-trihydroxy-6-methyl-tetrahydropyran-2-yl)oxy-tetrahydropyran-2-yl]oxymethyl]-3,4,5-trihydroxy-tetrahydropyran-2-yl] ester

> <PUBCHEM_IUPAC_INCHI>
InChI=1S/C48H78O19/c1-21-29(52)31(54)34(57)40(63-21)66-37-25(18-49)64-39(36(59)33(37)56)62-19-26-30(53)32(55)35(58)41(65-26)67-42(61)48-14-12-43(2,3)16-23(48)22-8-9-28-44(4)17-24(51)38(60)45(5,20-50)27(44)10-11-47(28,7)46(22,6)13-15-48/h21,24-41,49-60H,8-20H2,1-7H3

> <PUBCHEM_IUPAC_INCHIKEY>
UKZNRIQOGQPWHP-UHFFFAOYSA-N

> <PUBCHEM_XLOGP3_AA>
0

> <PUBCHEM_EXACT_MASS>
958.51373

> <PUBCHEM_MOLECULAR_FORMULA>
C48H78O19

> <PUBCHEM_MOLECULAR_WEIGHT>
959.1

> <PUBCHEM_OPENEYE_CAN_SMILES>
CC1C(C(C(C(O1)OC2C(OC(C(C2O)O)OCC3C(C(C(C(O3)OC(=O)C45CCC(CC4=C6CCC7C(C6(CC5)C)(CCC8C7(CC(C(C8(C)CO)O)O)C)C)(C)C)O)O)O)CO)O)O)O

> <PUBCHEM_OPENEYE_ISO_SMILES>
CC1C(C(C(C(O1)OC2C(OC(C(C2O)O)OCC3C(C(C(C(O3)OC(=O)C45CCC(CC4=C6CCC7C(C6(CC5)C)(CCC8C7(CC(C(C8(C)CO)O)O)C)C)(C)C)O)O)O)CO)O)O)O

> <PUBCHEM_CACTVS_TPSA>
315

> <PUBCHEM_MONOISOTOPIC_WEIGHT>
958.51373

> <PUBCHEM_TOTAL_CHARGE>
0

> <PUBCHEM_HEAVY_ATOM_COUNT>
67

> <PUBCHEM_ATOM_DEF_STEREO_COUNT>
0

> <PUBCHEM_ATOM_UDEF_STEREO_COUNT>
24

> <PUBCHEM_BOND_DEF_STEREO_COUNT>
0

> <PUBCHEM_BOND_UDEF_STEREO_COUNT>
0

> <PUBCHEM_ISOTOPIC_ATOM_COUNT>
0

> <PUBCHEM_COMPONENT_COUNT>
1

> <PUBCHEM_CACTVS_TAUTO_COUNT>
-1

> <PUBCHEM_COORDINATE_TYPE>
1
5
255

> <PUBCHEM_BONDANNOTATIONS>
33  1  3
56  10  3
57  12  3
60  13  3
62  13  3
58  14  3
63  17  3
64  18  3
66  19  3
35  2  3
20  34  3
21  28  3
22  36  3
23  27  3
24  40  3
26  42  3
37  47  3
50  4  3
53  55  3
59  61  3
65  67  3
51  7  3
52  8  3
54  9  3

$$$$
