85411973
  -OEChem-11212001252D

126132  0     1  0  0  0  0  0999 V2000
    4.1870    2.4411    0.0000 O   0  0  0  0  0  0  0  0  0  0  0  0
    3.2715    6.1168    0.0000 O   0  0  0  0  0  0  0  0  0  0  0  0
    5.0988    7.1346    0.0000 O   0  0  0  0  0  0  0  0  0  0  0  0
    2.6200    3.6616    0.0000 O   0  0  0  0  0  0  0  0  0  0  0  0
   10.3591   -0.1242    0.0000 O   0  0  0  0  0  0  0  0  0  0  0  0
    8.6271   -0.1242    0.0000 O   0  0  0  0  0  0  0  0  0  0  0  0
    9.4931   -1.6242    0.0000 O   0  0  0  0  0  0  0  0  0  0  0  0
   12.0912   -1.1242    0.0000 O   0  0  0  0  0  0  0  0  0  0  0  0
   12.0912   -3.1242    0.0000 O   0  0  0  0  0  0  0  0  0  0  0  0
   10.3591   -4.1242    0.0000 O   0  0  0  0  0  0  0  0  0  0  0  0
    8.6271   -4.1242    0.0000 O   0  0  0  0  0  0  0  0  0  0  0  0
    6.8950   -4.1242    0.0000 O   0  0  0  0  0  0  0  0  0  0  0  0
    8.6271   -6.1242    0.0000 O   0  0  0  0  0  0  0  0  0  0  0  0
    6.8950   -7.1242    0.0000 O   0  0  0  0  0  0  0  0  0  0  0  0
    5.1630   -6.1242    0.0000 O   0  0  0  0  0  0  0  0  0  0  0  0
    5.1630   -3.1242    0.0000 O   0  0  0  0  0  0  0  0  0  0  0  0
    6.8550    2.9447    0.0000 C   0  0  3  0  0  0  0  0  0  0  0  0
    6.8628    3.9446    0.0000 C   0  0  3  0  0  0  0  0  0  0  0  0
    5.9730    4.4862    0.0000 C   0  0  3  0  0  0  0  0  0  0  0  0
    7.7172    2.4380    0.0000 C   0  0  3  0  0  0  0  0  0  0  0  0
    5.0630    3.9793    0.0000 C   0  0  3  0  0  0  0  0  0  0  0  0
    5.9570    2.4169    0.0000 C   0  0  0  0  0  0  0  0  0  0  0  0
    5.0549    2.9377    0.0000 C   0  0  3  0  0  0  0  0  0  0  0  0
    4.1233    4.5218    0.0000 C   0  0  3  0  0  0  0  0  0  0  0  0
    8.5870    2.9313    0.0000 C   0  0  0  0  0  0  0  0  0  0  0  0
    9.4931    2.4175    0.0000 C   0  0  3  0  0  0  0  0  0  0  0  0
    6.0064    5.5707    0.0000 C   0  0  0  0  0  0  0  0  0  0  0  0
    7.7326    4.4380    0.0000 C   0  0  0  0  0  0  0  0  0  0  0  0
    7.6931    1.3967    0.0000 C   0  0  0  0  0  0  0  0  0  0  0  0
    9.4931    1.3758    0.0000 C   0  0  3  0  0  0  0  0  0  0  0  0
    6.5059    2.0076    0.0000 C   0  0  0  0  0  0  0  0  0  0  0  0
    8.5870    0.8620    0.0000 C   0  0  0  0  0  0  0  0  0  0  0  0
    4.1317    5.6068    0.0000 C   0  0  3  0  0  0  0  0  0  0  0  0
    5.0796    6.1347    0.0000 C   0  0  3  0  0  0  0  0  0  0  0  0
    6.8466    4.9728    0.0000 C   0  0  0  0  0  0  0  0  0  0  0  0
    8.5948    3.9313    0.0000 C   0  0  0  0  0  0  0  0  0  0  0  0
    7.0685    1.6770    0.0000 C   0  0  0  0  0  0  0  0  0  0  0  0
   10.4243    2.9744    0.0000 C   0  0  3  0  0  0  0  0  0  0  0  0
   10.4243    0.8189    0.0000 C   0  0  0  0  0  0  0  0  0  0  0  0
    3.1233    4.5257    0.0000 C   0  0  0  0  0  0  0  0  0  0  0  0
   11.3681    2.4392    0.0000 C   0  0  3  0  0  0  0  0  0  0  0  0
    3.6200    3.6577    0.0000 C   0  0  0  0  0  0  0  0  0  0  0  0
   11.3681    1.3542    0.0000 C   0  0  0  0  0  0  0  0  0  0  0  0
    9.4931    0.3758    0.0000 C   0  0  0  0  0  0  0  0  0  0  0  0
   10.4127    3.9743    0.0000 C   0  0  0  0  0  0  0  0  0  0  0  0
   12.2321    2.9425    0.0000 C   0  0  0  0  0  0  0  0  0  0  0  0
   10.3591   -1.1242    0.0000 C   0  0  3  0  0  0  0  0  0  0  0  0
   11.2252   -1.6242    0.0000 C   0  0  3  0  0  0  0  0  0  0  0  0
   11.2252   -2.6242    0.0000 C   0  0  3  0  0  0  0  0  0  0  0  0
    9.4931   -2.6242    0.0000 C   0  0  3  0  0  0  0  0  0  0  0  0
   10.3591   -3.1242    0.0000 C   0  0  3  0  0  0  0  0  0  0  0  0
    8.6271   -3.1242    0.0000 C   0  0  0  0  0  0  0  0  0  0  0  0
    7.7611   -4.6242    0.0000 C   0  0  3  0  0  0  0  0  0  0  0  0
    7.7611   -5.6242    0.0000 C   0  0  3  0  0  0  0  0  0  0  0  0
    6.8950   -6.1242    0.0000 C   0  0  3  0  0  0  0  0  0  0  0  0
    6.0290   -4.6242    0.0000 C   0  0  3  0  0  0  0  0  0  0  0  0
    6.0290   -5.6242    0.0000 C   0  0  3  0  0  0  0  0  0  0  0  0
    5.1630   -4.1242    0.0000 C   0  0  0  0  0  0  0  0  0  0  0  0
    7.3973    3.6305    0.0000 H   0  0  0  0  0  0  0  0  0  0  0  0
    4.5248    3.6714    0.0000 H   0  0  0  0  0  0  0  0  0  0  0  0
    5.5597    1.9410    0.0000 H   0  0  0  0  0  0  0  0  0  0  0  0
    6.3580    1.9440    0.0000 H   0  0  0  0  0  0  0  0  0  0  0  0
    5.0537    2.3177    0.0000 H   0  0  0  0  0  0  0  0  0  0  0  0
    9.4859    3.0374    0.0000 H   0  0  0  0  0  0  0  0  0  0  0  0
    6.6137    5.4458    0.0000 H   0  0  0  0  0  0  0  0  0  0  0  0
    6.2334    6.1476    0.0000 H   0  0  0  0  0  0  0  0  0  0  0  0
    8.1348    4.9098    0.0000 H   0  0  0  0  0  0  0  0  0  0  0  0
    7.3378    4.9160    0.0000 H   0  0  0  0  0  0  0  0  0  0  0  0
    7.0849    1.5168    0.0000 H   0  0  0  0  0  0  0  0  0  0  0  0
    7.4706    0.8180    0.0000 H   0  0  0  0  0  0  0  0  0  0  0  0
    5.9249    2.2241    0.0000 H   0  0  0  0  0  0  0  0  0  0  0  0
    6.2894    1.4266    0.0000 H   0  0  0  0  0  0  0  0  0  0  0  0
    7.0869    1.7911    0.0000 H   0  0  0  0  0  0  0  0  0  0  0  0
    8.1824    0.3922    0.0000 H   0  0  0  0  0  0  0  0  0  0  0  0
    8.9807    0.3830    0.0000 H   0  0  0  0  0  0  0  0  0  0  0  0
    3.5918    5.3020    0.0000 H   0  0  0  0  0  0  0  0  0  0  0  0
    4.5481    6.4540    0.0000 H   0  0  0  0  0  0  0  0  0  0  0  0
    7.1483    4.4311    0.0000 H   0  0  0  0  0  0  0  0  0  0  0  0
    7.3882    5.2745    0.0000 H   0  0  0  0  0  0  0  0  0  0  0  0
    6.5449    5.5144    0.0000 H   0  0  0  0  0  0  0  0  0  0  0  0
    9.1341    4.2372    0.0000 H   0  0  0  0  0  0  0  0  0  0  0  0
    6.5966    2.0792    0.0000 H   0  0  0  0  0  0  0  0  0  0  0  0
    6.6663    1.2051    0.0000 H   0  0  0  0  0  0  0  0  0  0  0  0
    7.5403    1.2748    0.0000 H   0  0  0  0  0  0  0  0  0  0  0  0
    9.8832    3.2771    0.0000 H   0  0  0  0  0  0  0  0  0  0  0  0
   10.0197    0.3491    0.0000 H   0  0  0  0  0  0  0  0  0  0  0  0
   10.8179    0.3399    0.0000 H   0  0  0  0  0  0  0  0  0  0  0  0
    3.2333    5.1358    0.0000 H   0  0  0  0  0  0  0  0  0  0  0  0
    2.5415    4.7400    0.0000 H   0  0  0  0  0  0  0  0  0  0  0  0
   11.3645    3.0591    0.0000 H   0  0  0  0  0  0  0  0  0  0  0  0
    3.0842    3.9698    0.0000 H   0  0  0  0  0  0  0  0  0  0  0  0
    3.3079    3.1220    0.0000 H   0  0  0  0  0  0  0  0  0  0  0  0
    4.1557    3.3457    0.0000 H   0  0  0  0  0  0  0  0  0  0  0  0
   11.5771    0.7705    0.0000 H   0  0  0  0  0  0  0  0  0  0  0  0
   11.9789    1.4603    0.0000 H   0  0  0  0  0  0  0  0  0  0  0  0
    4.1846    1.8211    0.0000 H   0  0  0  0  0  0  0  0  0  0  0  0
   11.0327    3.9815    0.0000 H   0  0  0  0  0  0  0  0  0  0  0  0
   10.4055    4.5943    0.0000 H   0  0  0  0  0  0  0  0  0  0  0  0
    9.7927    3.9672    0.0000 H   0  0  0  0  0  0  0  0  0  0  0  0
    3.2787    6.7367    0.0000 H   0  0  0  0  0  0  0  0  0  0  0  0
    5.6416    7.4342    0.0000 H   0  0  0  0  0  0  0  0  0  0  0  0
   12.5442    2.4068    0.0000 H   0  0  0  0  0  0  0  0  0  0  0  0
   12.7679    3.2546    0.0000 H   0  0  0  0  0  0  0  0  0  0  0  0
   11.9201    3.4782    0.0000 H   0  0  0  0  0  0  0  0  0  0  0  0
    2.0000    3.6640    0.0000 H   0  0  0  0  0  0  0  0  0  0  0  0
    9.8222   -0.8142    0.0000 H   0  0  0  0  0  0  0  0  0  0  0  0
   11.7621   -1.9342    0.0000 H   0  0  0  0  0  0  0  0  0  0  0  0
   11.2252   -3.2442    0.0000 H   0  0  0  0  0  0  0  0  0  0  0  0
    8.9562   -2.3142    0.0000 H   0  0  0  0  0  0  0  0  0  0  0  0
    9.8222   -3.4342    0.0000 H   0  0  0  0  0  0  0  0  0  0  0  0
   12.0912   -0.5042    0.0000 H   0  0  0  0  0  0  0  0  0  0  0  0
    8.4150   -2.5415    0.0000 H   0  0  0  0  0  0  0  0  0  0  0  0
    8.0165   -3.2318    0.0000 H   0  0  0  0  0  0  0  0  0  0  0  0
   12.6281   -2.8142    0.0000 H   0  0  0  0  0  0  0  0  0  0  0  0
   10.8961   -4.4342    0.0000 H   0  0  0  0  0  0  0  0  0  0  0  0
    8.2980   -4.9342    0.0000 H   0  0  0  0  0  0  0  0  0  0  0  0
    7.7611   -6.2442    0.0000 H   0  0  0  0  0  0  0  0  0  0  0  0
    6.3581   -6.4342    0.0000 H   0  0  0  0  0  0  0  0  0  0  0  0
    6.0290   -4.0042    0.0000 H   0  0  0  0  0  0  0  0  0  0  0  0
    6.0290   -6.2442    0.0000 H   0  0  0  0  0  0  0  0  0  0  0  0
    9.1640   -5.8142    0.0000 H   0  0  0  0  0  0  0  0  0  0  0  0
    4.5524   -4.0165    0.0000 H   0  0  0  0  0  0  0  0  0  0  0  0
    4.9509   -4.7068    0.0000 H   0  0  0  0  0  0  0  0  0  0  0  0
    6.3581   -7.4342    0.0000 H   0  0  0  0  0  0  0  0  0  0  0  0
    4.6260   -5.8142    0.0000 H   0  0  0  0  0  0  0  0  0  0  0  0
    4.6260   -2.8142    0.0000 H   0  0  0  0  0  0  0  0  0  0  0  0
  1 23  1  0  0  0  0
  1 96  1  0  0  0  0
  2 33  1  0  0  0  0
  2100  1  0  0  0  0
  3 34  1  0  0  0  0
  3101  1  0  0  0  0
  4 40  1  0  0  0  0
  4105  1  0  0  0  0
  5 44  1  0  0  0  0
  5 47  1  0  0  0  0
  6 44  2  0  0  0  0
  7 47  1  0  0  0  0
  7 50  1  0  0  0  0
  8 48  1  0  0  0  0
  8111  1  0  0  0  0
  9 49  1  0  0  0  0
  9114  1  0  0  0  0
 10 51  1  0  0  0  0
 10115  1  0  0  0  0
 11 52  1  0  0  0  0
 11 53  1  0  0  0  0
 12 53  1  0  0  0  0
 12 56  1  0  0  0  0
 13 54  1  0  0  0  0
 13121  1  0  0  0  0
 14 55  1  0  0  0  0
 14124  1  0  0  0  0
 15 57  1  0  0  0  0
 15125  1  0  0  0  0
 16 58  1  0  0  0  0
 16126  1  0  0  0  0
 17 18  1  0  0  0  0
 17 20  1  0  0  0  0
 17 22  1  0  0  0  0
 17 31  1  0  0  0  0
 18 19  1  0  0  0  0
 18 28  1  0  0  0  0
 18 59  1  0  0  0  0
 19 21  1  0  0  0  0
 19 27  1  0  0  0  0
 19 35  1  0  0  0  0
 20 25  1  0  0  0  0
 20 29  1  0  0  0  0
 20 37  1  0  0  0  0
 21 23  1  0  0  0  0
 21 24  1  0  0  0  0
 21 60  1  0  0  0  0
 22 23  1  0  0  0  0
 22 61  1  0  0  0  0
 22 62  1  0  0  0  0
 23 63  1  0  0  0  0
 24 33  1  0  0  0  0
 24 40  1  0  0  0  0
 24 42  1  0  0  0  0
 25 26  1  0  0  0  0
 25 36  2  0  0  0  0
 26 30  1  0  0  0  0
 26 38  1  0  0  0  0
 26 64  1  0  0  0  0
 27 34  1  0  0  0  0
 27 65  1  0  0  0  0
 27 66  1  0  0  0  0
 28 36  1  0  0  0  0
 28 67  1  0  0  0  0
 28 68  1  0  0  0  0
 29 32  1  0  0  0  0
 29 69  1  0  0  0  0
 29 70  1  0  0  0  0
 30 32  1  0  0  0  0
 30 39  1  0  0  0  0
 30 44  1  0  0  0  0
 31 71  1  0  0  0  0
 31 72  1  0  0  0  0
 31 73  1  0  0  0  0
 32 74  1  0  0  0  0
 32 75  1  0  0  0  0
 33 34  1  0  0  0  0
 33 76  1  0  0  0  0
 34 77  1  0  0  0  0
 35 78  1  0  0  0  0
 35 79  1  0  0  0  0
 35 80  1  0  0  0  0
 36 81  1  0  0  0  0
 37 82  1  0  0  0  0
 37 83  1  0  0  0  0
 37 84  1  0  0  0  0
 38 41  1  0  0  0  0
 38 45  1  0  0  0  0
 38 85  1  0  0  0  0
 39 43  1  0  0  0  0
 39 86  1  0  0  0  0
 39 87  1  0  0  0  0
 40 88  1  0  0  0  0
 40 89  1  0  0  0  0
 41 43  1  0  0  0  0
 41 46  1  0  0  0  0
 41 90  1  0  0  0  0
 42 91  1  0  0  0  0
 42 92  1  0  0  0  0
 42 93  1  0  0  0  0
 43 94  1  0  0  0  0
 43 95  1  0  0  0  0
 45 97  1  0  0  0  0
 45 98  1  0  0  0  0
 45 99  1  0  0  0  0
 46102  1  0  0  0  0
 46103  1  0  0  0  0
 46104  1  0  0  0  0
 47 48  1  0  0  0  0
 47106  1  0  0  0  0
 48 49  1  0  0  0  0
 48107  1  0  0  0  0
 49 51  1  0  0  0  0
 49108  1  0  0  0  0
 50 51  1  0  0  0  0
 50 52  1  0  0  0  0
 50109  1  0  0  0  0
 51110  1  0  0  0  0
 52112  1  0  0  0  0
 52113  1  0  0  0  0
 53 54  1  0  0  0  0
 53116  1  0  0  0  0
 54 55  1  0  0  0  0
 54117  1  0  0  0  0
 55 57  1  0  0  0  0
 55118  1  0  0  0  0
 56 57  1  0  0  0  0
 56 58  1  0  0  0  0
 56119  1  0  0  0  0
 57120  1  0  0  0  0
 58122  1  0  0  0  0
 58123  1  0  0  0  0
M  END
> <PUBCHEM_COMPOUND_CID>
85411973

> <PUBCHEM_COMPOUND_CANONICALIZED>
1

> <PUBCHEM_CACTVS_COMPLEXITY>
1560

> <PUBCHEM_CACTVS_HBOND_ACCEPTOR>
16

> <PUBCHEM_CACTVS_HBOND_DONOR>
11

> <PUBCHEM_CACTVS_ROTATABLE_BOND>
8

> <PUBCHEM_CACTVS_SUBSKEYS>
AAADcfB8PgAAAAAAAAAAAAAAAAAAAAAAAAA0aMGCAAAAAADAAAAAGgAACAAADxSwgAMCCAAABgCIAiDSCAAAAAAgAAAACAEAAAgREBIAAQAiQAAFgAAPAAPI6PyPgAAAAAAAAADAAAYAADCAAAAAAAAAAA==

> <PUBCHEM_IUPAC_OPENEYE_NAME>
[3,4,5-trihydroxy-6-[[3,4,5-trihydroxy-6-(hydroxymethyl)tetrahydropyran-2-yl]oxymethyl]tetrahydropyran-2-yl] 8,10,11-trihydroxy-9-(hydroxymethyl)-1,2,6a,6b,9,12a-hexamethyl-2,3,4,5,6,6a,7,8,8a,10,11,12,13,14b-tetradecahydro-1H-picene-4a-carboxylate

> <PUBCHEM_IUPAC_CAS_NAME>
8,10,11-trihydroxy-9-(hydroxymethyl)-1,2,6a,6b,9,12a-hexamethyl-2,3,4,5,6,6a,7,8,8a,10,11,12,13,14b-tetradecahydro-1H-picene-4a-carboxylic acid [3,4,5-trihydroxy-6-[[3,4,5-trihydroxy-6-(hydroxymethyl)-2-oxanyl]oxymethyl]-2-oxanyl] ester

> <PUBCHEM_IUPAC_NAME_MARKUP>
[3,4,5-trihydroxy-6-[[3,4,5-trihydroxy-6-(hydroxymethyl)oxan-2-yl]oxymethyl]oxan-2-yl] 8,10,11-trihydroxy-9-(hydroxymethyl)-1,2,6<I>a</I>,6<I>b</I>,9,12<I>a</I>-hexamethyl-2,3,4,5,6,6<I>a</I>,7,8,8<I>a</I>,10,11,12,13,14<I>b</I>-tetradecahydro-1<I>H</I>-picene-4<I>a</I>-carboxylate

> <PUBCHEM_IUPAC_NAME>
[3,4,5-trihydroxy-6-[[3,4,5-trihydroxy-6-(hydroxymethyl)oxan-2-yl]oxymethyl]oxan-2-yl] 8,10,11-trihydroxy-9-(hydroxymethyl)-1,2,6a,6b,9,12a-hexamethyl-2,3,4,5,6,6a,7,8,8a,10,11,12,13,14b-tetradecahydro-1H-picene-4a-carboxylate

> <PUBCHEM_IUPAC_SYSTEMATIC_NAME>
[6-[[6-(hydroxymethyl)-3,4,5-tris(oxidanyl)oxan-2-yl]oxymethyl]-3,4,5-tris(oxidanyl)oxan-2-yl] 9-(hydroxymethyl)-1,2,6a,6b,9,12a-hexamethyl-8,10,11-tris(oxidanyl)-2,3,4,5,6,6a,7,8,8a,10,11,12,13,14b-tetradecahydro-1H-picene-4a-carboxylate

> <PUBCHEM_IUPAC_TRADITIONAL_NAME>
8,10,11-trihydroxy-1,2,6a,6b,9,12a-hexamethyl-9-methylol-2,3,4,5,6,6a,7,8,8a,10,11,12,13,14b-tetradecahydro-1H-picene-4a-carboxylic acid [3,4,5-trihydroxy-6-[(3,4,5-trihydroxy-6-methylol-tetrahydropyran-2-yl)oxymethyl]tetrahydropyran-2-yl] ester

> <PUBCHEM_IUPAC_INCHI>
InChI=1S/C42H68O16/c1-18-9-10-42(37(54)58-36-32(52)30(50)28(48)24(57-36)16-55-35-31(51)29(49)27(47)23(15-43)56-35)12-11-40(5)20(26(42)19(18)2)7-8-25-38(3)13-22(46)34(53)39(4,17-44)33(38)21(45)14-41(25,40)6/h7,18-19,21-36,43-53H,8-17H2,1-6H3

> <PUBCHEM_IUPAC_INCHIKEY>
JSQCMNXZFPMWES-UHFFFAOYSA-N

> <PUBCHEM_XLOGP3_AA>
0.4

> <PUBCHEM_EXACT_MASS>
828.450736

> <PUBCHEM_MOLECULAR_FORMULA>
C42H68O16

> <PUBCHEM_MOLECULAR_WEIGHT>
829

> <PUBCHEM_OPENEYE_CAN_SMILES>
CC1CCC2(CCC3(C(=CCC4C3(CC(C5C4(CC(C(C5(C)CO)O)O)C)O)C)C2C1C)C)C(=O)OC6C(C(C(C(O6)COC7C(C(C(C(O7)CO)O)O)O)O)O)O

> <PUBCHEM_OPENEYE_ISO_SMILES>
CC1CCC2(CCC3(C(=CCC4C3(CC(C5C4(CC(C(C5(C)CO)O)O)C)O)C)C2C1C)C)C(=O)OC6C(C(C(C(O6)COC7C(C(C(C(O7)CO)O)O)O)O)O)O

> <PUBCHEM_CACTVS_TPSA>
277

> <PUBCHEM_MONOISOTOPIC_WEIGHT>
828.450736

> <PUBCHEM_TOTAL_CHARGE>
0

> <PUBCHEM_HEAVY_ATOM_COUNT>
58

> <PUBCHEM_ATOM_DEF_STEREO_COUNT>
0

> <PUBCHEM_ATOM_UDEF_STEREO_COUNT>
23

> <PUBCHEM_BOND_DEF_STEREO_COUNT>
0

> <PUBCHEM_BOND_UDEF_STEREO_COUNT>
0

> <PUBCHEM_ISOTOPIC_ATOM_COUNT>
0

> <PUBCHEM_COMPONENT_COUNT>
1

> <PUBCHEM_CACTVS_TAUTO_COUNT>
-1

> <PUBCHEM_COORDINATE_TYPE>
1
5
255

> <PUBCHEM_BONDANNOTATIONS>
23  1  3
51  10  3
53  11  3
54  13  3
55  14  3
57  15  3
17  31  3
18  28  3
19  35  3
33  2  3
20  37  3
21  23  3
24  42  3
26  25  3
34  3  3
30  44  3
38  45  3
41  46  3
47  5  3
50  52  3
56  58  3
48  8  3
49  9  3

$$$$
