85348461
  -OEChem-11212001262D

145152  0     1  0  0  0  0  0999 V2000
   18.2369    4.0303    0.0000 O   0  0  0  0  0  0  0  0  0  0  0  0
   21.8779    2.9853    0.0000 O   0  0  0  0  0  0  0  0  0  0  0  0
   21.8456    0.8938    0.0000 O   0  0  0  0  0  0  0  0  0  0  0  0
   12.9292   -0.0323    0.0000 O   0  0  0  0  0  0  0  0  0  0  0  0
   13.7953    1.4676    0.0000 O   0  0  0  0  0  0  0  0  0  0  0  0
   11.1972   -0.0323    0.0000 O   0  0  0  0  0  0  0  0  0  0  0  0
   12.9292    1.9676    0.0000 O   0  0  0  0  0  0  0  0  0  0  0  0
   11.1972    2.9676    0.0000 O   0  0  0  0  0  0  0  0  0  0  0  0
    9.4651    1.9676    0.0000 O   0  0  0  0  0  0  0  0  0  0  0  0
    9.4651   -1.0324    0.0000 O   0  0  0  0  0  0  0  0  0  0  0  0
    7.7331   -1.0324    0.0000 O   0  0  0  0  0  0  0  0  0  0  0  0
    9.4651   -3.0324    0.0000 O   0  0  0  0  0  0  0  0  0  0  0  0
    6.0010   -3.0324    0.0000 O   0  0  0  0  0  0  0  0  0  0  0  0
    7.7331   -4.0324    0.0000 O   0  0  0  0  0  0  0  0  0  0  0  0
    6.0010   -0.0323    0.0000 O   0  0  0  0  0  0  0  0  0  0  0  0
    5.1350   -1.5324    0.0000 O   0  0  0  0  0  0  0  0  0  0  0  0
    4.2690   -4.0324    0.0000 O   0  0  0  0  0  0  0  0  0  0  0  0
    2.5369   -3.0324    0.0000 O   0  0  0  0  0  0  0  0  0  0  0  0
    2.5369   -1.0324    0.0000 O   0  0  0  0  0  0  0  0  0  0  0  0
   17.3390    1.4679    0.0000 C   0  0  3  0  0  0  0  0  0  0  0  0
   18.2011    0.9612    0.0000 C   0  0  3  0  0  0  0  0  0  0  0  0
   19.1150    1.4610    0.0000 C   0  0  3  0  0  0  0  0  0  0  0  0
   16.4691    0.9746    0.0000 C   0  0  3  0  0  0  0  0  0  0  0  0
   19.1311    2.5025    0.0000 C   0  0  3  0  0  0  0  0  0  0  0  0
   17.3309    2.5095    0.0000 C   0  0  0  0  0  0  0  0  0  0  0  0
   18.2330    3.0303    0.0000 C   0  0  3  0  0  0  0  0  0  0  0  0
   20.0707    3.0450    0.0000 C   0  0  0  0  0  0  0  0  0  0  0  0
   16.4614   -0.0254    0.0000 C   0  0  0  0  0  0  0  0  0  0  0  0
   15.5634   -0.5532    0.0000 C   0  0  3  0  0  0  0  0  0  0  0  0
   18.1934   -0.0388    0.0000 C   0  0  0  0  0  0  0  0  0  0  0  0
   20.0375    0.8898    0.0000 C   0  0  0  0  0  0  0  0  0  0  0  0
   15.5793    1.5161    0.0000 C   0  0  0  0  0  0  0  0  0  0  0  0
   14.6613   -0.0323    0.0000 C   0  0  3  0  0  0  0  0  0  0  0  0
   16.7021    2.2388    0.0000 C   0  0  0  0  0  0  0  0  0  0  0  0
   14.6693    1.0092    0.0000 C   0  0  0  0  0  0  0  0  0  0  0  0
   21.0061    2.4953    0.0000 C   0  0  3  0  0  0  0  0  0  0  0  0
   19.0996    0.4611    0.0000 C   0  0  0  0  0  0  0  0  0  0  0  0
   20.9894    1.4104    0.0000 C   0  0  3  0  0  0  0  0  0  0  0  0
   17.3236   -0.5321    0.0000 C   0  0  0  0  0  0  0  0  0  0  0  0
   16.1343    1.9169    0.0000 C   0  0  0  0  0  0  0  0  0  0  0  0
   15.5801   -1.6380    0.0000 C   0  0  3  0  0  0  0  0  0  0  0  0
   13.7134   -0.5603    0.0000 C   0  0  0  0  0  0  0  0  0  0  0  0
   14.6447   -2.1878    0.0000 C   0  0  3  0  0  0  0  0  0  0  0  0
   20.5740    3.9091    0.0000 C   0  0  0  0  0  0  0  0  0  0  0  0
   19.5740    3.9130    0.0000 C   0  0  0  0  0  0  0  0  0  0  0  0
   13.7050   -1.6453    0.0000 C   0  0  0  0  0  0  0  0  0  0  0  0
   13.7953    0.4677    0.0000 C   0  0  0  0  0  0  0  0  0  0  0  0
   16.4518   -2.1280    0.0000 C   0  0  0  0  0  0  0  0  0  0  0  0
   14.6485   -3.1878    0.0000 C   0  0  0  0  0  0  0  0  0  0  0  0
   12.0632    0.4677    0.0000 C   0  0  3  0  0  0  0  0  0  0  0  0
   12.0632    1.4676    0.0000 C   0  0  3  0  0  0  0  0  0  0  0  0
   11.1972    1.9676    0.0000 C   0  0  3  0  0  0  0  0  0  0  0  0
   10.3312    0.4677    0.0000 C   0  0  3  0  0  0  0  0  0  0  0  0
   10.3312    1.4676    0.0000 C   0  0  3  0  0  0  0  0  0  0  0  0
    9.4651   -0.0323    0.0000 C   0  0  0  0  0  0  0  0  0  0  0  0
    8.5991   -1.5324    0.0000 C   0  0  3  0  0  0  0  0  0  0  0  0
    8.5991   -2.5324    0.0000 C   0  0  3  0  0  0  0  0  0  0  0  0
    7.7331   -3.0324    0.0000 C   0  0  3  0  0  0  0  0  0  0  0  0
    6.8671   -1.5324    0.0000 C   0  0  3  0  0  0  0  0  0  0  0  0
    6.8671   -2.5324    0.0000 C   0  0  3  0  0  0  0  0  0  0  0  0
    6.0010   -1.0324    0.0000 C   0  0  0  0  0  0  0  0  0  0  0  0
    5.1350   -2.5324    0.0000 C   0  0  3  0  0  0  0  0  0  0  0  0
    4.2690   -3.0324    0.0000 C   0  0  3  0  0  0  0  0  0  0  0  0
    3.4030   -2.5324    0.0000 C   0  0  3  0  0  0  0  0  0  0  0  0
    4.2690   -1.0324    0.0000 C   0  0  3  0  0  0  0  0  0  0  0  0
    3.4030   -1.5324    0.0000 C   0  0  3  0  0  0  0  0  0  0  0  0
    4.2690   -0.0323    0.0000 C   0  0  0  0  0  0  0  0  0  0  0  0
   18.7332    0.6430    0.0000 H   0  0  0  0  0  0  0  0  0  0  0  0
   19.1334    3.1225    0.0000 H   0  0  0  0  0  0  0  0  0  0  0  0
   17.1174    3.0915    0.0000 H   0  0  0  0  0  0  0  0  0  0  0  0
   16.7209    2.3987    0.0000 H   0  0  0  0  0  0  0  0  0  0  0  0
   17.6967    3.3413    0.0000 H   0  0  0  0  0  0  0  0  0  0  0  0
   16.1039   -0.8569    0.0000 H   0  0  0  0  0  0  0  0  0  0  0  0
   18.4010   -0.6230    0.0000 H   0  0  0  0  0  0  0  0  0  0  0  0
   18.8048    0.0642    0.0000 H   0  0  0  0  0  0  0  0  0  0  0  0
   19.6257    0.4263    0.0000 H   0  0  0  0  0  0  0  0  0  0  0  0
   20.4237    0.4048    0.0000 H   0  0  0  0  0  0  0  0  0  0  0  0
   15.9875    1.9828    0.0000 H   0  0  0  0  0  0  0  0  0  0  0  0
   15.1894    1.9981    0.0000 H   0  0  0  0  0  0  0  0  0  0  0  0
   17.1801    2.6337    0.0000 H   0  0  0  0  0  0  0  0  0  0  0  0
   16.3073    2.7168    0.0000 H   0  0  0  0  0  0  0  0  0  0  0  0
   16.2241    1.8440    0.0000 H   0  0  0  0  0  0  0  0  0  0  0  0
   14.4648    1.5945    0.0000 H   0  0  0  0  0  0  0  0  0  0  0  0
   14.0577    0.9079    0.0000 H   0  0  0  0  0  0  0  0  0  0  0  0
   21.5388    2.1781    0.0000 H   0  0  0  0  0  0  0  0  0  0  0  0
   18.4797    0.4707    0.0000 H   0  0  0  0  0  0  0  0  0  0  0  0
   19.0900   -0.1588    0.0000 H   0  0  0  0  0  0  0  0  0  0  0  0
   19.7195    0.4516    0.0000 H   0  0  0  0  0  0  0  0  0  0  0  0
   20.9762    0.7906    0.0000 H   0  0  0  0  0  0  0  0  0  0  0  0
   17.3188   -1.1520    0.0000 H   0  0  0  0  0  0  0  0  0  0  0  0
   16.7186    2.1244    0.0000 H   0  0  0  0  0  0  0  0  0  0  0  0
   15.9268    2.5011    0.0000 H   0  0  0  0  0  0  0  0  0  0  0  0
   15.5501    1.7093    0.0000 H   0  0  0  0  0  0  0  0  0  0  0  0
   15.5861   -2.2580    0.0000 H   0  0  0  0  0  0  0  0  0  0  0  0
   13.5089    0.0250    0.0000 H   0  0  0  0  0  0  0  0  0  0  0  0
   13.1018   -0.6617    0.0000 H   0  0  0  0  0  0  0  0  0  0  0  0
   14.1083   -2.4988    0.0000 H   0  0  0  0  0  0  0  0  0  0  0  0
   21.1098    3.5970    0.0000 H   0  0  0  0  0  0  0  0  0  0  0  0
   20.8861    4.4449    0.0000 H   0  0  0  0  0  0  0  0  0  0  0  0
   20.0383    4.2212    0.0000 H   0  0  0  0  0  0  0  0  0  0  0  0
   20.1122    4.2209    0.0000 H   0  0  0  0  0  0  0  0  0  0  0  0
   19.2661    4.4511    0.0000 H   0  0  0  0  0  0  0  0  0  0  0  0
   19.0359    3.6050    0.0000 H   0  0  0  0  0  0  0  0  0  0  0  0
   13.0950   -1.5345    0.0000 H   0  0  0  0  0  0  0  0  0  0  0  0
   13.4915   -2.2273    0.0000 H   0  0  0  0  0  0  0  0  0  0  0  0
   17.7011    4.3424    0.0000 H   0  0  0  0  0  0  0  0  0  0  0  0
   16.1481   -2.6685    0.0000 H   0  0  0  0  0  0  0  0  0  0  0  0
   16.9923   -2.4318    0.0000 H   0  0  0  0  0  0  0  0  0  0  0  0
   16.7556   -1.5875    0.0000 H   0  0  0  0  0  0  0  0  0  0  0  0
   22.4112    2.6691    0.0000 H   0  0  0  0  0  0  0  0  0  0  0  0
   21.8337    0.2740    0.0000 H   0  0  0  0  0  0  0  0  0  0  0  0
   14.0285   -3.1901    0.0000 H   0  0  0  0  0  0  0  0  0  0  0  0
   14.6509   -3.8077    0.0000 H   0  0  0  0  0  0  0  0  0  0  0  0
   15.2685   -3.1854    0.0000 H   0  0  0  0  0  0  0  0  0  0  0  0
   12.6002    0.7777    0.0000 H   0  0  0  0  0  0  0  0  0  0  0  0
   12.0632    2.0876    0.0000 H   0  0  0  0  0  0  0  0  0  0  0  0
   10.6603    2.2776    0.0000 H   0  0  0  0  0  0  0  0  0  0  0  0
   10.3312   -0.1523    0.0000 H   0  0  0  0  0  0  0  0  0  0  0  0
    9.7942    1.1576    0.0000 H   0  0  0  0  0  0  0  0  0  0  0  0
   12.9292    2.5876    0.0000 H   0  0  0  0  0  0  0  0  0  0  0  0
    9.2531    0.5503    0.0000 H   0  0  0  0  0  0  0  0  0  0  0  0
    8.8546   -0.1400    0.0000 H   0  0  0  0  0  0  0  0  0  0  0  0
   11.7341    3.2776    0.0000 H   0  0  0  0  0  0  0  0  0  0  0  0
    9.4651    2.5876    0.0000 H   0  0  0  0  0  0  0  0  0  0  0  0
    8.5991   -0.9123    0.0000 H   0  0  0  0  0  0  0  0  0  0  0  0
    8.5991   -3.1524    0.0000 H   0  0  0  0  0  0  0  0  0  0  0  0
    7.1962   -3.3424    0.0000 H   0  0  0  0  0  0  0  0  0  0  0  0
    6.8671   -0.9123    0.0000 H   0  0  0  0  0  0  0  0  0  0  0  0
    6.3301   -2.2224    0.0000 H   0  0  0  0  0  0  0  0  0  0  0  0
   10.0021   -2.7224    0.0000 H   0  0  0  0  0  0  0  0  0  0  0  0
    5.3905   -0.9247    0.0000 H   0  0  0  0  0  0  0  0  0  0  0  0
    5.7890   -1.6150    0.0000 H   0  0  0  0  0  0  0  0  0  0  0  0
    8.2700   -4.3424    0.0000 H   0  0  0  0  0  0  0  0  0  0  0  0
    5.1350   -3.1524    0.0000 H   0  0  0  0  0  0  0  0  0  0  0  0
    3.7320   -3.3424    0.0000 H   0  0  0  0  0  0  0  0  0  0  0  0
    6.5380    0.2777    0.0000 H   0  0  0  0  0  0  0  0  0  0  0  0
    2.8660   -2.2224    0.0000 H   0  0  0  0  0  0  0  0  0  0  0  0
    4.8059   -0.7223    0.0000 H   0  0  0  0  0  0  0  0  0  0  0  0
    3.4030   -0.9123    0.0000 H   0  0  0  0  0  0  0  0  0  0  0  0
    4.8890   -0.0323    0.0000 H   0  0  0  0  0  0  0  0  0  0  0  0
    4.2690    0.5877    0.0000 H   0  0  0  0  0  0  0  0  0  0  0  0
    3.6490   -0.0323    0.0000 H   0  0  0  0  0  0  0  0  0  0  0  0
    3.7320   -4.3424    0.0000 H   0  0  0  0  0  0  0  0  0  0  0  0
    2.0000   -2.7224    0.0000 H   0  0  0  0  0  0  0  0  0  0  0  0
    2.5369   -0.4123    0.0000 H   0  0  0  0  0  0  0  0  0  0  0  0
  1 26  1  0  0  0  0
  1106  1  0  0  0  0
  2 36  1  0  0  0  0
  2110  1  0  0  0  0
  3 38  1  0  0  0  0
  3111  1  0  0  0  0
  4 47  1  0  0  0  0
  4 50  1  0  0  0  0
  5 47  2  0  0  0  0
  6 50  1  0  0  0  0
  6 53  1  0  0  0  0
  7 51  1  0  0  0  0
  7120  1  0  0  0  0
  8 52  1  0  0  0  0
  8123  1  0  0  0  0
  9 54  1  0  0  0  0
  9124  1  0  0  0  0
 10 55  1  0  0  0  0
 10 56  1  0  0  0  0
 11 56  1  0  0  0  0
 11 59  1  0  0  0  0
 12 57  1  0  0  0  0
 12130  1  0  0  0  0
 13 60  1  0  0  0  0
 13 62  1  0  0  0  0
 14 58  1  0  0  0  0
 14133  1  0  0  0  0
 15 61  1  0  0  0  0
 15136  1  0  0  0  0
 16 62  1  0  0  0  0
 16 65  1  0  0  0  0
 17 63  1  0  0  0  0
 17143  1  0  0  0  0
 18 64  1  0  0  0  0
 18144  1  0  0  0  0
 19 66  1  0  0  0  0
 19145  1  0  0  0  0
 20 21  1  0  0  0  0
 20 23  1  0  0  0  0
 20 25  1  0  0  0  0
 20 34  1  0  0  0  0
 21 22  1  0  0  0  0
 21 30  1  0  0  0  0
 21 68  1  0  0  0  0
 22 24  1  0  0  0  0
 22 31  1  0  0  0  0
 22 37  1  0  0  0  0
 23 28  1  0  0  0  0
 23 32  1  0  0  0  0
 23 40  1  0  0  0  0
 24 26  1  0  0  0  0
 24 27  1  0  0  0  0
 24 69  1  0  0  0  0
 25 26  1  0  0  0  0
 25 70  1  0  0  0  0
 25 71  1  0  0  0  0
 26 72  1  0  0  0  0
 27 36  1  0  0  0  0
 27 44  1  0  0  0  0
 27 45  1  0  0  0  0
 28 29  1  0  0  0  0
 28 39  2  0  0  0  0
 29 33  1  0  0  0  0
 29 41  1  0  0  0  0
 29 73  1  0  0  0  0
 30 39  1  0  0  0  0
 30 74  1  0  0  0  0
 30 75  1  0  0  0  0
 31 38  1  0  0  0  0
 31 76  1  0  0  0  0
 31 77  1  0  0  0  0
 32 35  1  0  0  0  0
 32 78  1  0  0  0  0
 32 79  1  0  0  0  0
 33 35  1  0  0  0  0
 33 42  1  0  0  0  0
 33 47  1  0  0  0  0
 34 80  1  0  0  0  0
 34 81  1  0  0  0  0
 34 82  1  0  0  0  0
 35 83  1  0  0  0  0
 35 84  1  0  0  0  0
 36 38  1  0  0  0  0
 36 85  1  0  0  0  0
 37 86  1  0  0  0  0
 37 87  1  0  0  0  0
 37 88  1  0  0  0  0
 38 89  1  0  0  0  0
 39 90  1  0  0  0  0
 40 91  1  0  0  0  0
 40 92  1  0  0  0  0
 40 93  1  0  0  0  0
 41 43  1  0  0  0  0
 41 48  1  0  0  0  0
 41 94  1  0  0  0  0
 42 46  1  0  0  0  0
 42 95  1  0  0  0  0
 42 96  1  0  0  0  0
 43 46  1  0  0  0  0
 43 49  1  0  0  0  0
 43 97  1  0  0  0  0
 44 98  1  0  0  0  0
 44 99  1  0  0  0  0
 44100  1  0  0  0  0
 45101  1  0  0  0  0
 45102  1  0  0  0  0
 45103  1  0  0  0  0
 46104  1  0  0  0  0
 46105  1  0  0  0  0
 48107  1  0  0  0  0
 48108  1  0  0  0  0
 48109  1  0  0  0  0
 49112  1  0  0  0  0
 49113  1  0  0  0  0
 49114  1  0  0  0  0
 50 51  1  0  0  0  0
 50115  1  0  0  0  0
 51 52  1  0  0  0  0
 51116  1  0  0  0  0
 52 54  1  0  0  0  0
 52117  1  0  0  0  0
 53 54  1  0  0  0  0
 53 55  1  0  0  0  0
 53118  1  0  0  0  0
 54119  1  0  0  0  0
 55121  1  0  0  0  0
 55122  1  0  0  0  0
 56 57  1  0  0  0  0
 56125  1  0  0  0  0
 57 58  1  0  0  0  0
 57126  1  0  0  0  0
 58 60  1  0  0  0  0
 58127  1  0  0  0  0
 59 60  1  0  0  0  0
 59 61  1  0  0  0  0
 59128  1  0  0  0  0
 60129  1  0  0  0  0
 61131  1  0  0  0  0
 61132  1  0  0  0  0
 62 63  1  0  0  0  0
 62134  1  0  0  0  0
 63 64  1  0  0  0  0
 63135  1  0  0  0  0
 64 66  1  0  0  0  0
 64137  1  0  0  0  0
 65 66  1  0  0  0  0
 65 67  1  0  0  0  0
 65138  1  0  0  0  0
 66139  1  0  0  0  0
 67140  1  0  0  0  0
 67141  1  0  0  0  0
 67142  1  0  0  0  0
M  END
> <PUBCHEM_COMPOUND_CID>
85348461

> <PUBCHEM_COMPOUND_CANONICALIZED>
1

> <PUBCHEM_CACTVS_COMPLEXITY>
1840

> <PUBCHEM_CACTVS_HBOND_ACCEPTOR>
19

> <PUBCHEM_CACTVS_HBOND_DONOR>
12

> <PUBCHEM_CACTVS_ROTATABLE_BOND>
9

> <PUBCHEM_CACTVS_SUBSKEYS>
AAADcfB8PgAAAAAAAAAAAAAAAAAAAAAAAAA0aNGCAAAAAADAAAAAGgAACAAADxSwgAMCCAAABgCIAiDSCAAAAAAgAAAACAEAAAgREBIAAQAiQAAFgAAPAAPI6PyPgAAAAAAAAADAAAYAADCAAAAAAAAAAA==

> <PUBCHEM_IUPAC_OPENEYE_NAME>
[6-[[3,4-dihydroxy-6-(hydroxymethyl)-5-(3,4,5-trihydroxy-6-methyl-tetrahydropyran-2-yl)oxy-tetrahydropyran-2-yl]oxymethyl]-3,4,5-trihydroxy-tetrahydropyran-2-yl] 8,10,11-trihydroxy-1,2,6a,6b,9,9,12a-heptamethyl-2,3,4,5,6,6a,7,8,8a,10,11,12,13,14b-tetradecahydro-1H-picene-4a-carboxylate

> <PUBCHEM_IUPAC_CAS_NAME>
8,10,11-trihydroxy-1,2,6a,6b,9,9,12a-heptamethyl-2,3,4,5,6,6a,7,8,8a,10,11,12,13,14b-tetradecahydro-1H-picene-4a-carboxylic acid [6-[[3,4-dihydroxy-6-(hydroxymethyl)-5-[(3,4,5-trihydroxy-6-methyl-2-oxanyl)oxy]-2-oxanyl]oxymethyl]-3,4,5-trihydroxy-2-oxanyl] ester

> <PUBCHEM_IUPAC_NAME_MARKUP>
[6-[[3,4-dihydroxy-6-(hydroxymethyl)-5-(3,4,5-trihydroxy-6-methyloxan-2-yl)oxyoxan-2-yl]oxymethyl]-3,4,5-trihydroxyoxan-2-yl] 8,10,11-trihydroxy-1,2,6<I>a</I>,6<I>b</I>,9,9,12<I>a</I>-heptamethyl-2,3,4,5,6,6<I>a</I>,7,8,8<I>a</I>,10,11,12,13,14<I>b</I>-tetradecahydro-1<I>H</I>-picene-4<I>a</I>-carboxylate

> <PUBCHEM_IUPAC_NAME>
[6-[[3,4-dihydroxy-6-(hydroxymethyl)-5-(3,4,5-trihydroxy-6-methyloxan-2-yl)oxyoxan-2-yl]oxymethyl]-3,4,5-trihydroxyoxan-2-yl] 8,10,11-trihydroxy-1,2,6a,6b,9,9,12a-heptamethyl-2,3,4,5,6,6a,7,8,8a,10,11,12,13,14b-tetradecahydro-1H-picene-4a-carboxylate

> <PUBCHEM_IUPAC_SYSTEMATIC_NAME>
[6-[[6-(hydroxymethyl)-5-[6-methyl-3,4,5-tris(oxidanyl)oxan-2-yl]oxy-3,4-bis(oxidanyl)oxan-2-yl]oxymethyl]-3,4,5-tris(oxidanyl)oxan-2-yl] 1,2,6a,6b,9,9,12a-heptamethyl-8,10,11-tris(oxidanyl)-2,3,4,5,6,6a,7,8,8a,10,11,12,13,14b-tetradecahydro-1H-picene-4a-carboxylate

> <PUBCHEM_IUPAC_TRADITIONAL_NAME>
8,10,11-trihydroxy-1,2,6a,6b,9,9,12a-heptamethyl-2,3,4,5,6,6a,7,8,8a,10,11,12,13,14b-tetradecahydro-1H-picene-4a-carboxylic acid [6-[[3,4-dihydroxy-6-methylol-5-(3,4,5-trihydroxy-6-methyl-tetrahydropyran-2-yl)oxy-tetrahydropyran-2-yl]oxymethyl]-3,4,5-trihydroxy-tetrahydropyran-2-yl] ester

> <PUBCHEM_IUPAC_INCHI>
InChI=1S/C48H78O19/c1-19-11-12-48(14-13-46(7)22(28(48)20(19)2)9-10-27-45(6)15-24(51)39(60)44(4,5)38(45)23(50)16-47(27,46)8)43(61)67-42-35(58)32(55)30(53)26(65-42)18-62-40-36(59)33(56)37(25(17-49)64-40)66-41-34(57)31(54)29(52)21(3)63-41/h9,19-21,23-42,49-60H,10-18H2,1-8H3

> <PUBCHEM_IUPAC_INCHIKEY>
SOOVZDUBVGGAAJ-UHFFFAOYSA-N

> <PUBCHEM_XLOGP3_AA>
-0.6

> <PUBCHEM_EXACT_MASS>
958.51373

> <PUBCHEM_MOLECULAR_FORMULA>
C48H78O19

> <PUBCHEM_MOLECULAR_WEIGHT>
959.1

> <PUBCHEM_OPENEYE_CAN_SMILES>
CC1CCC2(CCC3(C(=CCC4C3(CC(C5C4(CC(C(C5(C)C)O)O)C)O)C)C2C1C)C)C(=O)OC6C(C(C(C(O6)COC7C(C(C(C(O7)CO)OC8C(C(C(C(O8)C)O)O)O)O)O)O)O)O

> <PUBCHEM_OPENEYE_ISO_SMILES>
CC1CCC2(CCC3(C(=CCC4C3(CC(C5C4(CC(C(C5(C)C)O)O)C)O)C)C2C1C)C)C(=O)OC6C(C(C(C(O6)COC7C(C(C(C(O7)CO)OC8C(C(C(C(O8)C)O)O)O)O)O)O)O)O

> <PUBCHEM_CACTVS_TPSA>
315

> <PUBCHEM_MONOISOTOPIC_WEIGHT>
958.51373

> <PUBCHEM_TOTAL_CHARGE>
0

> <PUBCHEM_HEAVY_ATOM_COUNT>
67

> <PUBCHEM_ATOM_DEF_STEREO_COUNT>
0

> <PUBCHEM_ATOM_UDEF_STEREO_COUNT>
27

> <PUBCHEM_BOND_DEF_STEREO_COUNT>
0

> <PUBCHEM_BOND_UDEF_STEREO_COUNT>
0

> <PUBCHEM_ISOTOPIC_ATOM_COUNT>
0

> <PUBCHEM_COMPONENT_COUNT>
1

> <PUBCHEM_CACTVS_TAUTO_COUNT>
-1

> <PUBCHEM_COORDINATE_TYPE>
1
5
255

> <PUBCHEM_BONDANNOTATIONS>
26  1  3
56  10  3
57  12  3
60  13  3
62  13  3
58  14  3
63  17  3
64  18  3
66  19  3
36  2  3
20  34  3
21  30  3
22  37  3
23  40  3
24  27  3
29  28  3
38  3  3
33  47  3
50  4  3
41  48  3
43  49  3
53  55  3
59  61  3
65  67  3
51  7  3
52  8  3
54  9  3

$$$$
