53426133
  -OEChem-11212009423D

 30 30  0     0  0  0  0  0  0999 V2000
    3.7959    0.2605    1.1008 O   0  0  0  0  0  0  0  0  0  0  0  0
   -1.2074    0.8809    0.1452 C   0  0  0  0  0  0  0  0  0  0  0  0
   -0.3823   -0.2406    0.2286 C   0  0  0  0  0  0  0  0  0  0  0  0
   -2.5707    0.7266   -0.1065 C   0  0  0  0  0  0  0  0  0  0  0  0
   -0.9203   -1.5165    0.0601 C   0  0  0  0  0  0  0  0  0  0  0  0
   -3.1088   -0.5493   -0.2749 C   0  0  0  0  0  0  0  0  0  0  0  0
   -2.2835   -1.6709   -0.1917 C   0  0  0  0  0  0  0  0  0  0  0  0
   -0.6458    2.2580    0.3232 C   0  0  0  0  0  0  0  0  0  0  0  0
    1.0448   -0.0817    0.4929 C   0  0  0  0  0  0  0  0  0  0  0  0
   -3.4782    1.9096   -0.2014 C   0  0  0  0  0  0  0  0  0  0  0  0
   -0.0698   -2.7435    0.1438 C   0  0  0  0  0  0  0  0  0  0  0  0
    1.9933    0.0864   -0.4507 C   0  0  0  0  0  0  0  0  0  0  0  0
    3.4254    0.2494   -0.0709 C   0  0  0  0  0  0  0  0  0  0  0  0
    4.4074    0.4310   -1.1985 C   0  0  0  0  0  0  0  0  0  0  0  0
   -4.1689   -0.6876   -0.4705 H   0  0  0  0  0  0  0  0  0  0  0  0
   -2.7202   -2.6570   -0.3258 H   0  0  0  0  0  0  0  0  0  0  0  0
   -1.3548    2.9344    0.8109 H   0  0  0  0  0  0  0  0  0  0  0  0
    0.2374    2.2740    0.9696 H   0  0  0  0  0  0  0  0  0  0  0  0
   -0.3719    2.6787   -0.6498 H   0  0  0  0  0  0  0  0  0  0  0  0
    1.3118   -0.1085    1.5468 H   0  0  0  0  0  0  0  0  0  0  0  0
   -3.6107    2.3721    0.7820 H   0  0  0  0  0  0  0  0  0  0  0  0
   -3.0877    2.6494   -0.9081 H   0  0  0  0  0  0  0  0  0  0  0  0
   -4.4723    1.6253   -0.5646 H   0  0  0  0  0  0  0  0  0  0  0  0
    0.6605   -2.7617   -0.6719 H   0  0  0  0  0  0  0  0  0  0  0  0
    0.4542   -2.7883    1.1044 H   0  0  0  0  0  0  0  0  0  0  0  0
   -0.6674   -3.6585    0.0647 H   0  0  0  0  0  0  0  0  0  0  0  0
    1.7399    0.1144   -1.5051 H   0  0  0  0  0  0  0  0  0  0  0  0
    3.9913    0.0814   -2.1472 H   0  0  0  0  0  0  0  0  0  0  0  0
    5.3056   -0.1571   -0.9898 H   0  0  0  0  0  0  0  0  0  0  0  0
    4.6662    1.4892   -1.2852 H   0  0  0  0  0  0  0  0  0  0  0  0
  1 13  2  0  0  0  0
  2  3  1  0  0  0  0
  2  4  2  0  0  0  0
  2  8  1  0  0  0  0
  3  5  2  0  0  0  0
  3  9  1  0  0  0  0
  4  6  1  0  0  0  0
  4 10  1  0  0  0  0
  5  7  1  0  0  0  0
  5 11  1  0  0  0  0
  6  7  2  0  0  0  0
  6 15  1  0  0  0  0
  7 16  1  0  0  0  0
  8 17  1  0  0  0  0
  8 18  1  0  0  0  0
  8 19  1  0  0  0  0
  9 12  2  3  0  0  0
  9 20  1  0  0  0  0
 10 21  1  0  0  0  0
 10 22  1  0  0  0  0
 10 23  1  0  0  0  0
 11 24  1  0  0  0  0
 11 25  1  0  0  0  0
 11 26  1  0  0  0  0
 12 13  1  0  0  0  0
 12 27  1  0  0  0  0
 13 14  1  0  0  0  0
 14 28  1  0  0  0  0
 14 29  1  0  0  0  0
 14 30  1  0  0  0  0
M  END
> <PUBCHEM_COMPOUND_CID>
53426133

> <PUBCHEM_CONFORMER_RMSD>
0.6

> <PUBCHEM_CONFORMER_DIVERSEORDER>
1
3
4
2

> <PUBCHEM_MMFF94_PARTIAL_CHARGES>
18
1 -0.57
10 0.14
11 0.14
12 -0.14
13 0.49
14 0.06
15 0.15
16 0.15
2 -0.14
20 0.15
27 0.15
3 0.03
4 -0.14
5 -0.14
6 -0.15
7 -0.15
8 0.14
9 -0.18

> <PUBCHEM_EFFECTIVE_ROTOR_COUNT>
2

> <PUBCHEM_PHARMACOPHORE_FEATURES>
2
1 1 acceptor
6 2 3 4 5 6 7 rings

> <PUBCHEM_HEAVY_ATOM_COUNT>
14

> <PUBCHEM_ATOM_DEF_STEREO_COUNT>
0

> <PUBCHEM_ATOM_UDEF_STEREO_COUNT>
0

> <PUBCHEM_BOND_DEF_STEREO_COUNT>
0

> <PUBCHEM_BOND_UDEF_STEREO_COUNT>
1

> <PUBCHEM_ISOTOPIC_ATOM_COUNT>
0

> <PUBCHEM_COMPONENT_COUNT>
1

> <PUBCHEM_CACTVS_TAUTO_COUNT>
30

> <PUBCHEM_CONFORMER_ID>
032F37D500000001

> <PUBCHEM_MMFF94_ENERGY>
41.7134

> <PUBCHEM_FEATURE_SELFOVERLAP>
10.148

> <PUBCHEM_SHAPE_FINGERPRINT>
10726558 24 18338803312172211791
11132069 177 18413385427846805704
12173636 292 18409445907796598596
13024252 1 15285355145959653251
13380535 76 18337104562697348979
14614273 12 18188763942930288269
14897335 6 18337946775661093303
14993402 34 18260546748875660309
15669948 3 18336545031659195062
15775835 57 18113339682705458284
16945 1 18339349860231117995
17846911 113 18340480088847901073
17870717 6 17986697929682336790
18186145 218 17989210330483222208
193761 8 17762898766987233953
20279233 1 17775567559385615726
20510252 161 18343304794317402129
20645476 183 18041286546870119750
20645477 56 18410858780618195888
20645477 70 16773807987244284014
20871999 31 18340209686291390588
21029758 27 18115878558486486541
21501502 16 18267013965018196915
23366157 5 17825671049495354851
23402539 116 18342166761513024556
23557571 272 18201451297443912012
23559900 14 18272933800536833996
2748010 2 17905875235085212855
4175511 318 18113330903744774397
43471831 8 18335697209035847051
474 4 16807302547369114004
6333449 129 18342737429258841457
7364860 26 17981883047325121802
77492 1 17748818635883001490
9709674 26 18343026609908554582

> <PUBCHEM_SHAPE_MULTIPOLES>
282.24
6.66
2.31
0.84
6.5
0.69
0.03
-2.2
1.28
-1.84
-0.1
0.65
-0.07
-0.12

> <PUBCHEM_SHAPE_SELFOVERLAP>
581.554

> <PUBCHEM_SHAPE_VOLUME>
164.8

> <PUBCHEM_COORDINATE_TYPE>
2
5
10

$$$$
