520725
  -OEChem-09102012563D

 37 36  0     0  0  0  0  0  0999 V2000
   -7.4082   -0.2084   -0.0334 O   0  0  0  0  0  0  0  0  0  0  0  0
    0.0286   -0.5269    0.0562 C   0  0  0  0  0  0  0  0  0  0  0  0
   -1.1956    0.3902    0.0500 C   0  0  0  0  0  0  0  0  0  0  0  0
    1.3291    0.2802    0.0554 C   0  0  0  0  0  0  0  0  0  0  0  0
   -2.4946   -0.4167    0.0169 C   0  0  0  0  0  0  0  0  0  0  0  0
    2.5514   -0.6403    0.0282 C   0  0  0  0  0  0  0  0  0  0  0  0
   -3.7184    0.4998   -0.0233 C   0  0  0  0  0  0  0  0  0  0  0  0
    3.8847    0.1151   -0.0051 C   0  0  0  0  0  0  0  0  0  0  0  0
   -5.0157   -0.3058   -0.0228 C   0  0  0  0  0  0  0  0  0  0  0  0
    5.1060   -0.8104   -0.0570 C   0  0  0  0  0  0  0  0  0  0  0  0
   -6.2394    0.5994   -0.0191 C   0  0  0  0  0  0  0  0  0  0  0  0
    6.4550   -0.1441   -0.0284 C   0  0  0  0  0  0  0  0  0  0  0  0
    6.7170    1.1679   -0.0178 C   0  0  0  0  0  0  0  0  0  0  0  0
    0.0019   -1.1789   -0.8254 H   0  0  0  0  0  0  0  0  0  0  0  0
   -0.0017   -1.1760    0.9397 H   0  0  0  0  0  0  0  0  0  0  0  0
   -1.1534    1.0517   -0.8240 H   0  0  0  0  0  0  0  0  0  0  0  0
   -1.1810    1.0299    0.9408 H   0  0  0  0  0  0  0  0  0  0  0  0
    1.3518    0.9419   -0.8188 H   0  0  0  0  0  0  0  0  0  0  0  0
    1.3697    0.9185    0.9462 H   0  0  0  0  0  0  0  0  0  0  0  0
   -2.5461   -1.0627    0.9018 H   0  0  0  0  0  0  0  0  0  0  0  0
   -2.4998   -1.0721   -0.8626 H   0  0  0  0  0  0  0  0  0  0  0  0
    2.5317   -1.2938    0.9092 H   0  0  0  0  0  0  0  0  0  0  0  0
    2.4918   -1.2934   -0.8514 H   0  0  0  0  0  0  0  0  0  0  0  0
   -3.7027    1.1691    0.8455 H   0  0  0  0  0  0  0  0  0  0  0  0
   -3.6773    1.1315   -0.9189 H   0  0  0  0  0  0  0  0  0  0  0  0
    3.9446    0.7540    0.8852 H   0  0  0  0  0  0  0  0  0  0  0  0
    3.8926    0.7794   -0.8784 H   0  0  0  0  0  0  0  0  0  0  0  0
   -5.0526   -0.9658   -0.8985 H   0  0  0  0  0  0  0  0  0  0  0  0
   -5.0530   -0.9668    0.8522 H   0  0  0  0  0  0  0  0  0  0  0  0
    5.0504   -1.4248   -0.9639 H   0  0  0  0  0  0  0  0  0  0  0  0
    5.0598   -1.5016    0.7939 H   0  0  0  0  0  0  0  0  0  0  0  0
   -6.2511    1.2436   -0.9040 H   0  0  0  0  0  0  0  0  0  0  0  0
   -6.2595    1.2258    0.8783 H   0  0  0  0  0  0  0  0  0  0  0  0
    7.3060   -0.8227   -0.0199 H   0  0  0  0  0  0  0  0  0  0  0  0
   -8.1713    0.3942   -0.0308 H   0  0  0  0  0  0  0  0  0  0  0  0
    7.7441    1.5173    0.0010 H   0  0  0  0  0  0  0  0  0  0  0  0
    5.9351    1.9175   -0.0287 H   0  0  0  0  0  0  0  0  0  0  0  0
  1 11  1  0  0  0  0
  1 35  1  0  0  0  0
  2  3  1  0  0  0  0
  2  4  1  0  0  0  0
  2 14  1  0  0  0  0
  2 15  1  0  0  0  0
  3  5  1  0  0  0  0
  3 16  1  0  0  0  0
  3 17  1  0  0  0  0
  4  6  1  0  0  0  0
  4 18  1  0  0  0  0
  4 19  1  0  0  0  0
  5  7  1  0  0  0  0
  5 20  1  0  0  0  0
  5 21  1  0  0  0  0
  6  8  1  0  0  0  0
  6 22  1  0  0  0  0
  6 23  1  0  0  0  0
  7  9  1  0  0  0  0
  7 24  1  0  0  0  0
  7 25  1  0  0  0  0
  8 10  1  0  0  0  0
  8 26  1  0  0  0  0
  8 27  1  0  0  0  0
  9 11  1  0  0  0  0
  9 28  1  0  0  0  0
  9 29  1  0  0  0  0
 10 12  1  0  0  0  0
 10 30  1  0  0  0  0
 10 31  1  0  0  0  0
 11 32  1  0  0  0  0
 11 33  1  0  0  0  0
 12 13  2  0  0  0  0
 12 34  1  0  0  0  0
 13 36  1  0  0  0  0
 13 37  1  0  0  0  0
M  END
> <PUBCHEM_COMPOUND_CID>
520725

> <PUBCHEM_CONFORMER_RMSD>
1.2

> <PUBCHEM_CONFORMER_DIVERSEORDER>
1
10
23
5
4
2
24
18
16
40
20
6
31
25
39
35
34
12
3
19
14
28
21
29
38
15
11
26
8
7
32
22
17
36
30
13
27
33
9
37

> <PUBCHEM_MMFF94_PARTIAL_CHARGES>
9
1 -0.68
10 0.14
11 0.28
12 -0.29
13 -0.3
34 0.15
35 0.4
36 0.15
37 0.15

> <PUBCHEM_EFFECTIVE_ROTOR_COUNT>
10

> <PUBCHEM_PHARMACOPHORE_FEATURES>
3
1 1 acceptor
1 1 donor
1 13 hydrophobe

> <PUBCHEM_HEAVY_ATOM_COUNT>
13

> <PUBCHEM_ATOM_DEF_STEREO_COUNT>
0

> <PUBCHEM_ATOM_UDEF_STEREO_COUNT>
0

> <PUBCHEM_BOND_DEF_STEREO_COUNT>
0

> <PUBCHEM_BOND_UDEF_STEREO_COUNT>
0

> <PUBCHEM_ISOTOPIC_ATOM_COUNT>
0

> <PUBCHEM_COMPONENT_COUNT>
1

> <PUBCHEM_CACTVS_TAUTO_COUNT>
1

> <PUBCHEM_CONFORMER_ID>
0007F21500000001

> <PUBCHEM_MMFF94_ENERGY>
0.1735

> <PUBCHEM_FEATURE_SELFOVERLAP>
15.223

> <PUBCHEM_SHAPE_FINGERPRINT>
10968037 39 18341894095820030447
11315181 36 18272654559069711641
12091667 2 18410856556352319419
12714333 28 18333450941345039594
13533116 47 18272084942879310122
14123238 8 17561365076254535186
14123256 10 18201720651970230441
14251718 22 18411418401507511802
14251764 18 18272090496013034609
14251764 46 18410573985156732395
14729087 3 17240475889212156757
15048467 5 18410573998553428140
17834076 25 18410575080373399363
20281389 69 18040995129133776692
20645477 70 18129947763790530718
20767249 213 18410856563940038118
21130983 4 18409732867741983864
220451 1 16630522921024248335
22224240 67 17022902367148033595
22896161 15 18410574011259040431
23035841 295 9367345929265547413
23402539 116 18413102874848972335
23521765 1 18341894090839345315
28498 318 9295297135805467704
33684 2 18408602552640266571
42788 4 18410573976572079048
4463277 17 18411136926599632720
57583515 80 10231755596182541071
8209 1 18410856559639789582

> <PUBCHEM_SHAPE_MULTIPOLES>
261.66
21.11
0.91
0.61
5.8
0.08
0
2.73
0.49
-0.75
0
-0.05
0
0.01

> <PUBCHEM_SHAPE_SELFOVERLAP>
467.53

> <PUBCHEM_SHAPE_VOLUME>
169.1

> <PUBCHEM_COORDINATE_TYPE>
2
5
10

$$$$
