5318358
  -OEChem-09082007123D

 40 42  0     0  0  0  0  0  0999 V2000
   -0.5581    1.4339    0.0451 O   0  0  0  0  0  0  0  0  0  0  0  0
    1.8628    2.6210    0.0623 O   0  0  0  0  0  0  0  0  0  0  0  0
    4.1758    1.1277    0.0844 O   0  0  0  0  0  0  0  0  0  0  0  0
    4.0487   -1.6233    0.0937 O   0  0  0  0  0  0  0  0  0  0  0  0
    1.6375   -2.8970    0.0760 O   0  0  0  0  0  0  0  0  0  0  0  0
   -0.9721   -2.6368    0.0541 O   0  0  0  0  0  0  0  0  0  0  0  0
   -5.6567   -0.6973    0.0026 O   0  0  0  0  0  0  0  0  0  0  0  0
    0.4883   -0.7726    0.0600 C   0  0  0  0  0  0  0  0  0  0  0  0
    0.5483    0.6207    0.0569 C   0  0  0  0  0  0  0  0  0  0  0  0
   -2.0033   -0.5347    0.0374 C   0  0  0  0  0  0  0  0  0  0  0  0
   -0.8310   -1.4230    0.0501 C   0  0  0  0  0  0  0  0  0  0  0  0
   -1.7985    0.8448    0.0357 C   0  0  0  0  0  0  0  0  0  0  0  0
    1.7904    1.2588    0.0659 C   0  0  0  0  0  0  0  0  0  0  0  0
    1.6602   -1.5337    0.0721 C   0  0  0  0  0  0  0  0  0  0  0  0
    2.9633    0.5031    0.0779 C   0  0  0  0  0  0  0  0  0  0  0  0
    2.8980   -0.8905    0.0811 C   0  0  0  0  0  0  0  0  0  0  0  0
   -3.2980   -1.0602    0.0271 C   0  0  0  0  0  0  0  0  0  0  0  0
   -2.8972    1.7065    0.0236 C   0  0  0  0  0  0  0  0  0  0  0  0
   -4.3917   -0.1942    0.0151 C   0  0  0  0  0  0  0  0  0  0  0  0
   -4.1920    1.1864    0.0134 C   0  0  0  0  0  0  0  0  0  0  0  0
    1.9083    3.2624   -1.2099 C   0  0  0  0  0  0  0  0  0  0  0  0
    4.7409    1.4290    1.3580 C   0  0  0  0  0  0  0  0  0  0  0  0
    4.6050   -1.9744   -1.1708 C   0  0  0  0  0  0  0  0  0  0  0  0
   -6.7291    0.2435   -0.0119 C   0  0  0  0  0  0  0  0  0  0  0  0
   -3.4681   -2.1336    0.0279 H   0  0  0  0  0  0  0  0  0  0  0  0
   -2.7515    2.7836    0.0220 H   0  0  0  0  0  0  0  0  0  0  0  0
   -4.9973    1.9131    0.0041 H   0  0  0  0  0  0  0  0  0  0  0  0
    2.5491   -3.2285    0.1446 H   0  0  0  0  0  0  0  0  0  0  0  0
    1.9593    4.3424   -1.0470 H   0  0  0  0  0  0  0  0  0  0  0  0
    1.0062    3.0387   -1.7881 H   0  0  0  0  0  0  0  0  0  0  0  0
    2.7975    2.9509   -1.7670 H   0  0  0  0  0  0  0  0  0  0  0  0
    4.9105    0.5122    1.9313 H   0  0  0  0  0  0  0  0  0  0  0  0
    4.0893    2.1068    1.9184 H   0  0  0  0  0  0  0  0  0  0  0  0
    5.7030    1.9232    1.1973 H   0  0  0  0  0  0  0  0  0  0  0  0
    4.9111   -1.0765   -1.7169 H   0  0  0  0  0  0  0  0  0  0  0  0
    3.8886   -2.5483   -1.7671 H   0  0  0  0  0  0  0  0  0  0  0  0
    5.4887   -2.5939   -0.9957 H   0  0  0  0  0  0  0  0  0  0  0  0
   -6.7192    0.8513   -0.9230 H   0  0  0  0  0  0  0  0  0  0  0  0
   -6.7397    0.8559    0.8962 H   0  0  0  0  0  0  0  0  0  0  0  0
   -7.6618   -0.3300   -0.0209 H   0  0  0  0  0  0  0  0  0  0  0  0
  1  9  1  0  0  0  0
  1 12  1  0  0  0  0
  2 13  1  0  0  0  0
  2 21  1  0  0  0  0
  3 15  1  0  0  0  0
  3 22  1  0  0  0  0
  4 16  1  0  0  0  0
  4 23  1  0  0  0  0
  5 14  1  0  0  0  0
  5 28  1  0  0  0  0
  6 11  2  0  0  0  0
  7 19  1  0  0  0  0
  7 24  1  0  0  0  0
  8  9  1  0  0  0  0
  8 11  1  0  0  0  0
  8 14  2  0  0  0  0
  9 13  2  0  0  0  0
 10 11  1  0  0  0  0
 10 12  2  0  0  0  0
 10 17  1  0  0  0  0
 12 18  1  0  0  0  0
 13 15  1  0  0  0  0
 14 16  1  0  0  0  0
 15 16  2  0  0  0  0
 17 19  2  0  0  0  0
 17 25  1  0  0  0  0
 18 20  2  0  0  0  0
 18 26  1  0  0  0  0
 19 20  1  0  0  0  0
 20 27  1  0  0  0  0
 21 29  1  0  0  0  0
 21 30  1  0  0  0  0
 21 31  1  0  0  0  0
 22 32  1  0  0  0  0
 22 33  1  0  0  0  0
 22 34  1  0  0  0  0
 23 35  1  0  0  0  0
 23 36  1  0  0  0  0
 23 37  1  0  0  0  0
 24 38  1  0  0  0  0
 24 39  1  0  0  0  0
 24 40  1  0  0  0  0
M  END
> <PUBCHEM_COMPOUND_CID>
5318358

> <PUBCHEM_CONFORMER_RMSD>
0.8

> <PUBCHEM_CONFORMER_DIVERSEORDER>
2
1

> <PUBCHEM_MMFF94_PARTIAL_CHARGES>
28
1 -0.17
10 0.09
11 0.4
12 0.08
13 0.08
14 0.08
15 0.08
16 0.08
17 -0.15
18 -0.15
19 0.08
2 -0.36
20 -0.15
21 0.28
22 0.28
23 0.28
24 0.28
25 0.15
26 0.15
27 0.15
28 0.45
3 -0.36
4 -0.36
5 -0.53
6 -0.57
7 -0.36
8 0.09
9 0.08

> <PUBCHEM_EFFECTIVE_ROTOR_COUNT>
4

> <PUBCHEM_PHARMACOPHORE_FEATURES>
10
1 1 acceptor
1 2 acceptor
1 3 acceptor
1 4 acceptor
1 5 donor
1 6 acceptor
1 7 acceptor
6 1 8 9 10 11 12 rings
6 10 12 17 18 19 20 rings
6 8 9 13 14 15 16 rings

> <PUBCHEM_HEAVY_ATOM_COUNT>
24

> <PUBCHEM_ATOM_DEF_STEREO_COUNT>
0

> <PUBCHEM_ATOM_UDEF_STEREO_COUNT>
0

> <PUBCHEM_BOND_DEF_STEREO_COUNT>
0

> <PUBCHEM_BOND_UDEF_STEREO_COUNT>
0

> <PUBCHEM_ISOTOPIC_ATOM_COUNT>
0

> <PUBCHEM_COMPONENT_COUNT>
1

> <PUBCHEM_CACTVS_TAUTO_COUNT>
4

> <PUBCHEM_CONFORMER_ID>
005126D600000002

> <PUBCHEM_MMFF94_ENERGY>
113.2187

> <PUBCHEM_FEATURE_SELFOVERLAP>
50.823

> <PUBCHEM_SHAPE_FINGERPRINT>
10366900 7 17530973449338691331
10411042 1 17906170655262480434
10616163 171 18266743678051458255
10967382 1 18410292523323444960
11471102 20 18410291415005682719
11578080 2 16843306050566010091
11680986 33 18410863187196463570
12011746 2 18335989683328460983
12107183 9 17622170062251451145
12236239 1 17847061078362731587
12403259 226 18335978679901998789
12403259 415 18334853871106545637
12838862 33 18267001994654400536
13140716 1 18120367919891297088
13533116 47 17917993862645454978
13862211 1 18337672988739639762
14170010 4 18410292523365837825
14341114 176 18411986853857345313
15196674 1 18411981330265736457
15536298 74 18342738503185275290
16945 1 18337115678067182874
17980427 23 18052236669577116476
1813 80 17313103042662484268
19591789 44 18265896861003844990
200 152 18131066031149558681
20028762 73 18201715142092511191
20645477 70 18272653407190574062
21267235 1 18340494365372115759
21279426 13 18267584611088510053
21452121 103 18271798030647491562
21709351 56 18337667521736493109
221357 26 18411982421208463861
221490 88 18335993050672433259
22149856 69 18341067297968815315
22182313 1 18262501607757363916
23402539 116 18270390711366326365
23558518 356 17611462321829511514
23559900 14 18411135857120880795
2748010 2 18410573977384540334
3004659 81 18334299726057542654
335352 9 18410575071826065958
34934 24 18270394009721997818
350125 39 18409732846441493589
3545911 37 18413107285943960888
3886686 26 16459638740198338826
42630746 31 18413105078330660240
474 4 18334576892564818433
495365 180 17489579091848890954
5104073 3 18411982421229524633
59755656 215 18410293609696924477
7364860 26 18412263960572974828
9709674 26 18337394945214808891
9971528 1 18411699881190899788
9981440 41 17615687775122511280
9999458 23 18114181964283301423

> <PUBCHEM_SHAPE_MULTIPOLES>
452.82
11.16
2.93
0.8
11.3
0.42
0.04
-0.1
-0.33
-2.8
0.55
-0.81
0.22
0.55

> <PUBCHEM_SHAPE_SELFOVERLAP>
997.926

> <PUBCHEM_SHAPE_VOLUME>
245.2

> <PUBCHEM_COORDINATE_TYPE>
2
5
10

$$$$
