101304457
  -OEChem-09082007133D

 40 42  0     0  0  0  0  0  0999 V2000
    0.4086    1.5028   -0.1172 O   0  0  0  0  0  0  0  0  0  0  0  0
   -1.7096   -2.8360    0.3975 O   0  0  0  0  0  0  0  0  0  0  0  0
   -2.0325    2.6469   -0.1788 O   0  0  0  0  0  0  0  0  0  0  0  0
   -4.3176    1.1280    0.0421 O   0  0  0  0  0  0  0  0  0  0  0  0
    0.8945   -2.5383    0.3027 O   0  0  0  0  0  0  0  0  0  0  0  0
   -4.1425   -1.6051    0.3284 O   0  0  0  0  0  0  0  0  0  0  0  0
    5.5425   -0.5408   -0.0276 O   0  0  0  0  0  0  0  0  0  0  0  0
   -0.5984   -0.7067    0.1437 C   0  0  0  0  0  0  0  0  0  0  0  0
   -0.6829    0.6776   -0.0019 C   0  0  0  0  0  0  0  0  0  0  0  0
    1.8880   -0.4330    0.0519 C   0  0  0  0  0  0  0  0  0  0  0  0
    0.7318   -1.3336    0.1772 C   0  0  0  0  0  0  0  0  0  0  0  0
    1.6589    0.9355   -0.0882 C   0  0  0  0  0  0  0  0  0  0  0  0
   -1.7563   -1.4809    0.2554 C   0  0  0  0  0  0  0  0  0  0  0  0
   -1.9357    1.2937   -0.0362 C   0  0  0  0  0  0  0  0  0  0  0  0
   -3.0948    0.5248    0.0749 C   0  0  0  0  0  0  0  0  0  0  0  0
   -3.0049   -0.8598    0.2204 C   0  0  0  0  0  0  0  0  0  0  0  0
    3.1914   -0.9362    0.0728 C   0  0  0  0  0  0  0  0  0  0  0  0
    2.7420    1.8086   -0.2084 C   0  0  0  0  0  0  0  0  0  0  0  0
    4.2694   -0.0590   -0.0476 C   0  0  0  0  0  0  0  0  0  0  0  0
    4.0455    1.3108   -0.1880 C   0  0  0  0  0  0  0  0  0  0  0  0
   -1.7200   -3.6125   -0.7983 C   0  0  0  0  0  0  0  0  0  0  0  0
   -2.0464    3.4231    1.0167 C   0  0  0  0  0  0  0  0  0  0  0  0
   -4.9292    1.2797   -1.2367 C   0  0  0  0  0  0  0  0  0  0  0  0
    6.5983    0.4105   -0.1549 C   0  0  0  0  0  0  0  0  0  0  0  0
    3.3803   -2.0009    0.1816 H   0  0  0  0  0  0  0  0  0  0  0  0
    2.5773    2.8774   -0.3180 H   0  0  0  0  0  0  0  0  0  0  0  0
    4.8377    2.0453   -0.2860 H   0  0  0  0  0  0  0  0  0  0  0  0
   -3.8939   -2.5310    0.4912 H   0  0  0  0  0  0  0  0  0  0  0  0
   -1.4778   -4.6463   -0.5371 H   0  0  0  0  0  0  0  0  0  0  0  0
   -0.9788   -3.2508   -1.5183 H   0  0  0  0  0  0  0  0  0  0  0  0
   -2.7147   -3.5925   -1.2541 H   0  0  0  0  0  0  0  0  0  0  0  0
   -2.9108    3.1623    1.6355 H   0  0  0  0  0  0  0  0  0  0  0  0
   -1.1216    3.2764    1.5836 H   0  0  0  0  0  0  0  0  0  0  0  0
   -2.1217    4.4780    0.7390 H   0  0  0  0  0  0  0  0  0  0  0  0
   -5.8951    1.7731   -1.0979 H   0  0  0  0  0  0  0  0  0  0  0  0
   -5.0991    0.3035   -1.7015 H   0  0  0  0  0  0  0  0  0  0  0  0
   -4.3093    1.9029   -1.8889 H   0  0  0  0  0  0  0  0  0  0  0  0
    7.5406   -0.1460   -0.1187 H   0  0  0  0  0  0  0  0  0  0  0  0
    6.6101    1.1135    0.6850 H   0  0  0  0  0  0  0  0  0  0  0  0
    6.5657    0.9208   -1.1235 H   0  0  0  0  0  0  0  0  0  0  0  0
  1  9  1  0  0  0  0
  1 12  1  0  0  0  0
  2 13  1  0  0  0  0
  2 21  1  0  0  0  0
  3 14  1  0  0  0  0
  3 22  1  0  0  0  0
  4 15  1  0  0  0  0
  4 23  1  0  0  0  0
  5 11  2  0  0  0  0
  6 16  1  0  0  0  0
  6 28  1  0  0  0  0
  7 19  1  0  0  0  0
  7 24  1  0  0  0  0
  8  9  2  0  0  0  0
  8 11  1  0  0  0  0
  8 13  1  0  0  0  0
  9 14  1  0  0  0  0
 10 11  1  0  0  0  0
 10 12  2  0  0  0  0
 10 17  1  0  0  0  0
 12 18  1  0  0  0  0
 13 16  2  0  0  0  0
 14 15  2  0  0  0  0
 15 16  1  0  0  0  0
 17 19  2  0  0  0  0
 17 25  1  0  0  0  0
 18 20  2  0  0  0  0
 18 26  1  0  0  0  0
 19 20  1  0  0  0  0
 20 27  1  0  0  0  0
 21 29  1  0  0  0  0
 21 30  1  0  0  0  0
 21 31  1  0  0  0  0
 22 32  1  0  0  0  0
 22 33  1  0  0  0  0
 22 34  1  0  0  0  0
 23 35  1  0  0  0  0
 23 36  1  0  0  0  0
 23 37  1  0  0  0  0
 24 38  1  0  0  0  0
 24 39  1  0  0  0  0
 24 40  1  0  0  0  0
M  END
> <PUBCHEM_COMPOUND_CID>
101304457

> <PUBCHEM_CONFORMER_RMSD>
0.8

> <PUBCHEM_CONFORMER_DIVERSEORDER>
1
2

> <PUBCHEM_MMFF94_PARTIAL_CHARGES>
28
1 -0.17
10 0.09
11 0.4
12 0.08
13 0.08
14 0.08
15 0.08
16 0.08
17 -0.15
18 -0.15
19 0.08
2 -0.36
20 -0.15
21 0.28
22 0.28
23 0.28
24 0.28
25 0.15
26 0.15
27 0.15
28 0.45
3 -0.36
4 -0.36
5 -0.57
6 -0.53
7 -0.36
8 0.09
9 0.08

> <PUBCHEM_EFFECTIVE_ROTOR_COUNT>
4

> <PUBCHEM_PHARMACOPHORE_FEATURES>
10
1 1 acceptor
1 2 acceptor
1 3 acceptor
1 4 acceptor
1 5 acceptor
1 6 donor
1 7 acceptor
6 1 8 9 10 11 12 rings
6 10 12 17 18 19 20 rings
6 8 9 13 14 15 16 rings

> <PUBCHEM_HEAVY_ATOM_COUNT>
24

> <PUBCHEM_ATOM_DEF_STEREO_COUNT>
0

> <PUBCHEM_ATOM_UDEF_STEREO_COUNT>
0

> <PUBCHEM_BOND_DEF_STEREO_COUNT>
0

> <PUBCHEM_BOND_UDEF_STEREO_COUNT>
0

> <PUBCHEM_ISOTOPIC_ATOM_COUNT>
0

> <PUBCHEM_COMPONENT_COUNT>
1

> <PUBCHEM_CACTVS_TAUTO_COUNT>
1

> <PUBCHEM_CONFORMER_ID>
0609C88900000001

> <PUBCHEM_MMFF94_ENERGY>
113.6252

> <PUBCHEM_FEATURE_SELFOVERLAP>
50.828

> <PUBCHEM_SHAPE_FINGERPRINT>
10319926 262 18270380764844496810
10366900 7 17917421012787219688
10411042 1 17906172106935020243
10616163 171 18410577314115602606
10967382 1 18337673009892118705
1100329 8 18338519741415374233
11315181 36 18335706040253232128
12011746 2 18410007706614420893
12107183 9 17830730951188640992
12236239 1 17676487255323987738
12390115 104 18128552465516282632
12403259 226 18127126596708891304
12788726 201 18200024028747110617
12838862 33 18336808828250153365
13140716 1 18266187316609251531
138480 1 17257653318338092139
14790565 3 18269000787094087785
15042514 8 18337960111503327747
15196674 1 18336547209059778124
16087824 20 18411417324853121431
16945 1 18410862027360075723
17804303 29 18411703214001047448
19591789 44 18337675192020711922
200 152 17917707998191166053
20510252 161 18342461430502791513
20775438 99 16833985572866694495
21267235 1 18335993072073611547
22182313 1 18268169607362814815
2334 1 17977950407880828027
23402539 116 18412820304613305796
23557571 272 18341620368542595118
23559900 14 18342171220006115064
238 59 16671303584419292109
2748010 2 18123748922631306577
283562 15 18341612547908510449
335352 9 18409166597520263396
34934 24 18260823769950478154
350125 39 18409171025969571008
352729 6 18411144640503230179
3545911 37 18335702723710103149
4214541 1 18409168831240905980
484989 97 18191578860871500103
5104073 3 18336548308550476720
559249 180 18334008385382840402
58051976 378 18341331089377984693
59755656 215 18411702050407789014
633830 44 17168143498707924712
70251023 43 17620184777796379935
9709674 26 18341901792111703534

> <PUBCHEM_SHAPE_MULTIPOLES>
452.82
10.29
3.36
0.76
11.58
0.83
0.06
-2.27
1.42
-3.3
-0.17
-0.48
-0.12
-0.09

> <PUBCHEM_SHAPE_SELFOVERLAP>
998.51

> <PUBCHEM_SHAPE_VOLUME>
246.6

> <PUBCHEM_COORDINATE_TYPE>
2
5
10

$$$$
