71437983
  -OEChem-09082007103D

 34 36  0     0  0  0  0  0  0999 V2000
    0.1097    1.0983    0.2332 O   0  0  0  0  0  0  0  0  0  0  0  0
   -2.3113    2.2803    0.3637 O   0  0  0  0  0  0  0  0  0  0  0  0
    2.2777    2.7121    0.4029 O   0  0  0  0  0  0  0  0  0  0  0  0
   -2.1069   -3.2052   -0.2250 O   0  0  0  0  0  0  0  0  0  0  0  0
    0.4954   -2.9521   -0.2006 O   0  0  0  0  0  0  0  0  0  0  0  0
    3.0995   -2.7145   -0.1783 O   0  0  0  0  0  0  0  0  0  0  0  0
   -4.6297    0.7840    0.2074 O   0  0  0  0  0  0  0  0  0  0  0  0
   -0.9387   -1.0950    0.0004 C   0  0  0  0  0  0  0  0  0  0  0  0
    1.5534   -0.8602    0.0222 C   0  0  0  0  0  0  0  0  0  0  0  0
   -0.9974    0.2903    0.1488 C   0  0  0  0  0  0  0  0  0  0  0  0
    1.3496    0.5116    0.1689 C   0  0  0  0  0  0  0  0  0  0  0  0
    0.3802   -1.7426   -0.0706 C   0  0  0  0  0  0  0  0  0  0  0  0
   -2.2390    0.9257    0.2184 C   0  0  0  0  0  0  0  0  0  0  0  0
   -2.1112   -1.8509   -0.0795 C   0  0  0  0  0  0  0  0  0  0  0  0
    2.4490    1.3678    0.2589 C   0  0  0  0  0  0  0  0  0  0  0  0
    2.8476   -1.3835   -0.0356 C   0  0  0  0  0  0  0  0  0  0  0  0
   -3.4126    0.1751    0.1400 C   0  0  0  0  0  0  0  0  0  0  0  0
   -3.3485   -1.2105   -0.0090 C   0  0  0  0  0  0  0  0  0  0  0  0
    3.7434    0.8498    0.2022 C   0  0  0  0  0  0  0  0  0  0  0  0
    3.9420   -0.5231    0.0549 C   0  0  0  0  0  0  0  0  0  0  0  0
   -2.3471    3.0569   -0.8311 C   0  0  0  0  0  0  0  0  0  0  0  0
    2.1948    3.4856   -0.7923 C   0  0  0  0  0  0  0  0  0  0  0  0
   -4.2617   -1.7978   -0.0708 H   0  0  0  0  0  0  0  0  0  0  0  0
    4.6031    1.5110    0.2726 H   0  0  0  0  0  0  0  0  0  0  0  0
    4.9547   -0.9154    0.0118 H   0  0  0  0  0  0  0  0  0  0  0  0
   -1.1979   -3.5400   -0.2625 H   0  0  0  0  0  0  0  0  0  0  0  0
    2.2699   -3.2134   -0.2304 H   0  0  0  0  0  0  0  0  0  0  0  0
   -5.3266    0.1094    0.1352 H   0  0  0  0  0  0  0  0  0  0  0  0
   -1.4445    2.8907   -1.4277 H   0  0  0  0  0  0  0  0  0  0  0  0
   -3.2364    2.8148   -1.4215 H   0  0  0  0  0  0  0  0  0  0  0  0
   -2.3905    4.1131   -0.5517 H   0  0  0  0  0  0  0  0  0  0  0  0
    2.0377    4.5312   -0.5135 H   0  0  0  0  0  0  0  0  0  0  0  0
    1.3511    3.1576   -1.4077 H   0  0  0  0  0  0  0  0  0  0  0  0
    3.1265    3.4113   -1.3619 H   0  0  0  0  0  0  0  0  0  0  0  0
  1 10  1  0  0  0  0
  1 11  1  0  0  0  0
  2 13  1  0  0  0  0
  2 21  1  0  0  0  0
  3 15  1  0  0  0  0
  3 22  1  0  0  0  0
  4 14  1  0  0  0  0
  4 26  1  0  0  0  0
  5 12  2  0  0  0  0
  6 16  1  0  0  0  0
  6 27  1  0  0  0  0
  7 17  1  0  0  0  0
  7 28  1  0  0  0  0
  8 10  2  0  0  0  0
  8 12  1  0  0  0  0
  8 14  1  0  0  0  0
  9 11  1  0  0  0  0
  9 12  1  0  0  0  0
  9 16  2  0  0  0  0
 10 13  1  0  0  0  0
 11 15  2  0  0  0  0
 13 17  2  0  0  0  0
 14 18  2  0  0  0  0
 15 19  1  0  0  0  0
 16 20  1  0  0  0  0
 17 18  1  0  0  0  0
 18 23  1  0  0  0  0
 19 20  2  0  0  0  0
 19 24  1  0  0  0  0
 20 25  1  0  0  0  0
 21 29  1  0  0  0  0
 21 30  1  0  0  0  0
 21 31  1  0  0  0  0
 22 32  1  0  0  0  0
 22 33  1  0  0  0  0
 22 34  1  0  0  0  0
M  END
> <PUBCHEM_COMPOUND_CID>
71437983

> <PUBCHEM_CONFORMER_RMSD>
0.6

> <PUBCHEM_CONFORMER_DIVERSEORDER>
1
2

> <PUBCHEM_MMFF94_PARTIAL_CHARGES>
28
1 -0.17
10 0.08
11 0.08
12 0.4
13 0.08
14 0.08
15 0.08
16 0.08
17 0.08
18 -0.15
19 -0.15
2 -0.36
20 -0.15
21 0.28
22 0.28
23 0.15
24 0.15
25 0.15
26 0.45
27 0.45
28 0.45
3 -0.36
4 -0.53
5 -0.57
6 -0.53
7 -0.53
8 0.09
9 0.09

> <PUBCHEM_EFFECTIVE_ROTOR_COUNT>
2

> <PUBCHEM_PHARMACOPHORE_FEATURES>
10
1 1 acceptor
1 2 acceptor
1 3 acceptor
1 4 donor
1 5 acceptor
1 6 donor
1 7 donor
6 1 8 9 10 11 12 rings
6 8 10 13 14 17 18 rings
6 9 11 15 16 19 20 rings

> <PUBCHEM_HEAVY_ATOM_COUNT>
22

> <PUBCHEM_ATOM_DEF_STEREO_COUNT>
0

> <PUBCHEM_ATOM_UDEF_STEREO_COUNT>
0

> <PUBCHEM_BOND_DEF_STEREO_COUNT>
0

> <PUBCHEM_BOND_UDEF_STEREO_COUNT>
0

> <PUBCHEM_ISOTOPIC_ATOM_COUNT>
0

> <PUBCHEM_COMPONENT_COUNT>
1

> <PUBCHEM_CACTVS_TAUTO_COUNT>
45

> <PUBCHEM_CONFORMER_ID>
04420E9F00000001

> <PUBCHEM_MMFF94_ENERGY>
89.7237

> <PUBCHEM_FEATURE_SELFOVERLAP>
50.817

> <PUBCHEM_SHAPE_FINGERPRINT>
10411042 1 17403179201687522983
10498660 4 18121220049882150661
10608611 8 18411134723196741056
10616163 171 18268432510705427270
10967382 1 18339643339182420106
12403259 226 18336825286611940637
12403260 363 18410845568850166609
13140716 1 18338239383187877747
13583140 156 17241030059904148233
138480 1 17403176993826081635
14178342 30 18339344362614859866
14223421 5 18410291457955245216
14790565 3 17332824751218717616
15196674 1 18412544331511072851
15442244 35 18339642231233962050
15536298 74 18272370867204353074
16945 1 18411134714701992307
17492 89 18411136982461341458
18186145 218 18201163152520140376
19591789 44 18122064200002758782
20739085 24 17620225059872097881
21267235 1 18340496551558072138
21501502 16 18268147728635326338
221490 88 18337962289204565266
23227448 37 18412260644984647855
2334 1 18123470750342210091
23366157 5 18187080702576725050
23558518 356 18190176978343276370
23559900 14 18342735247869187872
238 59 16744484879272391261
2748010 2 18340768118361306782
335352 9 18339924805416365079
350125 39 18410579508590624856
352729 6 18341334491097824843
4409770 3 17393870774863820036
5104073 3 18411981377326014699
58051976 378 18341047514383948780
69090 78 18341609296259291659
7097593 13 18115569458117235026
7364860 26 18341613745940277944
7832392 63 18411698747314044474
9709674 26 18412830208787336758
9981440 41 17832138695212827280

> <PUBCHEM_SHAPE_MULTIPOLES>
411.66
6.87
3.91
0.68
0.76
0.99
0.04
0.8
-0.24
-0.41
0.82
-0.01
0.22
0.02

> <PUBCHEM_SHAPE_SELFOVERLAP>
921.478

> <PUBCHEM_SHAPE_VOLUME>
219.7

> <PUBCHEM_COORDINATE_TYPE>
2
5
10

$$$$
