56680033
  -OEChem-09082007343D

 78 82  0     1  0  0  0  0  0999 V2000
    2.0428    0.1251    1.8532 O   0  0  0  0  0  0  0  0  0  0  0  0
    4.0089   -1.8907   -0.7323 O   0  0  0  0  0  0  0  0  0  0  0  0
   -2.5920   -3.4152    0.5135 O   0  0  0  0  0  0  0  0  0  0  0  0
   -2.8067    1.2807    1.4298 O   0  0  0  0  0  0  0  0  0  0  0  0
   -4.0890   -1.1342    0.9900 O   0  0  0  0  0  0  0  0  0  0  0  0
    8.8000    1.2016    1.0810 O   0  0  0  0  0  0  0  0  0  0  0  0
    9.5608    0.9956   -1.5843 O   0  0  0  0  0  0  0  0  0  0  0  0
   -6.2346   -0.8940   -1.9792 O   0  0  0  0  0  0  0  0  0  0  0  0
   -5.7054   -3.5633   -1.1344 O   0  0  0  0  0  0  0  0  0  0  0  0
   -6.4138    2.0059    0.4567 O   0  0  0  0  0  0  0  0  0  0  0  0
   -5.0875    4.3846   -0.0291 O   0  0  0  0  0  0  0  0  0  0  0  0
    2.1285   -0.4788   -0.4616 C   0  0  2  0  0  0  0  0  0  0  0  0
    3.3512    0.3246   -0.1089 C   0  0  2  0  0  0  0  0  0  0  0  0
    1.5669   -0.8614    0.9143 C   0  0  2  0  0  0  0  0  0  0  0  0
    4.4303   -0.7548    0.0503 C   0  0  2  0  0  0  0  0  0  0  0  0
    2.9522    1.0068    1.1806 C   0  0  0  0  0  0  0  0  0  0  0  0
    2.6960   -1.6372   -1.2512 C   0  0  0  0  0  0  0  0  0  0  0  0
    0.0587   -0.9338    0.9348 C   0  0  0  0  0  0  0  0  0  0  0  0
    5.7989   -0.2862   -0.3827 C   0  0  0  0  0  0  0  0  0  0  0  0
   -0.6919    0.2170    1.1755 C   0  0  0  0  0  0  0  0  0  0  0  0
   -0.5835   -2.1520    0.7130 C   0  0  0  0  0  0  0  0  0  0  0  0
    6.6815    0.2500    0.5550 C   0  0  0  0  0  0  0  0  0  0  0  0
    6.1810   -0.3905   -1.7201 C   0  0  0  0  0  0  0  0  0  0  0  0
   -1.9767   -2.2194    0.7316 C   0  0  0  0  0  0  0  0  0  0  0  0
   -2.0851    0.1496    1.1942 C   0  0  0  0  0  0  0  0  0  0  0  0
    7.9462    0.6819    0.1553 C   0  0  0  0  0  0  0  0  0  0  0  0
    7.4456    0.0416   -2.1199 C   0  0  0  0  0  0  0  0  0  0  0  0
   -2.7273   -1.0686    0.9721 C   0  0  0  0  0  0  0  0  0  0  0  0
    8.3282    0.5777   -1.1822 C   0  0  0  0  0  0  0  0  0  0  0  0
   -4.7308   -1.5785   -0.2032 C   0  0  2  0  0  0  0  0  0  0  0  0
   -5.6241   -0.4556   -0.7629 C   0  0  1  0  0  0  0  0  0  0  0  0
   -1.7511   -4.5424    0.2756 C   0  0  0  0  0  0  0  0  0  0  0  0
   -2.0726    2.4842    1.6469 C   0  0  0  0  0  0  0  0  0  0  0  0
   -5.4942   -2.8673    0.0902 C   0  0  0  0  0  0  0  0  0  0  0  0
    8.3316    1.2728    2.4263 C   0  0  0  0  0  0  0  0  0  0  0  0
   -4.9151    0.8586   -1.0120 C   0  0  0  0  0  0  0  0  0  0  0  0
   -5.3441    2.0306   -0.3889 C   0  0  0  0  0  0  0  0  0  0  0  0
   -3.8210    0.8888   -1.8767 C   0  0  0  0  0  0  0  0  0  0  0  0
   -4.6789    3.2326   -0.6306 C   0  0  0  0  0  0  0  0  0  0  0  0
   -3.1559    2.0909   -2.1185 C   0  0  0  0  0  0  0  0  0  0  0  0
   -3.5849    3.2628   -1.4954 C   0  0  0  0  0  0  0  0  0  0  0  0
   -6.1429    1.7596    1.8346 C   0  0  0  0  0  0  0  0  0  0  0  0
    1.4030    0.0974   -1.0470 H   0  0  0  0  0  0  0  0  0  0  0  0
    3.6163    1.0482   -0.8881 H   0  0  0  0  0  0  0  0  0  0  0  0
    1.9736   -1.8191    1.2639 H   0  0  0  0  0  0  0  0  0  0  0  0
    4.4893   -1.1168    1.0848 H   0  0  0  0  0  0  0  0  0  0  0  0
    3.7976    1.2327    1.8364 H   0  0  0  0  0  0  0  0  0  0  0  0
    2.4137    1.9389    0.9775 H   0  0  0  0  0  0  0  0  0  0  0  0
    2.8084   -1.3701   -2.3077 H   0  0  0  0  0  0  0  0  0  0  0  0
    2.0935   -2.5475   -1.1876 H   0  0  0  0  0  0  0  0  0  0  0  0
   -0.1493    1.1427    1.3274 H   0  0  0  0  0  0  0  0  0  0  0  0
    0.0521   -3.0117    0.5297 H   0  0  0  0  0  0  0  0  0  0  0  0
    6.3287    0.3071    1.5792 H   0  0  0  0  0  0  0  0  0  0  0  0
    5.5075   -0.7953   -2.4704 H   0  0  0  0  0  0  0  0  0  0  0  0
    7.7297   -0.0434   -3.1654 H   0  0  0  0  0  0  0  0  0  0  0  0
   -3.9931   -1.8152   -0.9842 H   0  0  0  0  0  0  0  0  0  0  0  0
    9.6491    0.8466   -2.5414 H   0  0  0  0  0  0  0  0  0  0  0  0
   -6.4469   -0.3011   -0.0575 H   0  0  0  0  0  0  0  0  0  0  0  0
   -1.1656   -4.4227   -0.6424 H   0  0  0  0  0  0  0  0  0  0  0  0
   -1.1247   -4.7700    1.1448 H   0  0  0  0  0  0  0  0  0  0  0  0
   -2.4072   -5.4056    0.1226 H   0  0  0  0  0  0  0  0  0  0  0  0
   -1.4507    2.4188    2.5465 H   0  0  0  0  0  0  0  0  0  0  0  0
   -1.4940    2.7734    0.7633 H   0  0  0  0  0  0  0  0  0  0  0  0
   -2.8008    3.2810    1.8294 H   0  0  0  0  0  0  0  0  0  0  0  0
   -6.4673   -2.6491    0.5441 H   0  0  0  0  0  0  0  0  0  0  0  0
   -4.9654   -3.5267    0.7824 H   0  0  0  0  0  0  0  0  0  0  0  0
    9.1370    1.7112    3.0247 H   0  0  0  0  0  0  0  0  0  0  0  0
    8.1359    0.2772    2.8391 H   0  0  0  0  0  0  0  0  0  0  0  0
    7.4683    1.9407    2.5188 H   0  0  0  0  0  0  0  0  0  0  0  0
   -6.8102   -1.6488   -1.7702 H   0  0  0  0  0  0  0  0  0  0  0  0
   -3.4760   -0.0109   -2.3784 H   0  0  0  0  0  0  0  0  0  0  0  0
   -6.2057   -4.3692   -0.9208 H   0  0  0  0  0  0  0  0  0  0  0  0
   -2.3043    2.1143   -2.7920 H   0  0  0  0  0  0  0  0  0  0  0  0
   -3.0569    4.1920   -1.6919 H   0  0  0  0  0  0  0  0  0  0  0  0
   -7.0908    1.7956    2.3788 H   0  0  0  0  0  0  0  0  0  0  0  0
   -5.4814    2.5309    2.2414 H   0  0  0  0  0  0  0  0  0  0  0  0
   -5.6993    0.7717    1.9809 H   0  0  0  0  0  0  0  0  0  0  0  0
   -4.5065    5.1121   -0.3103 H   0  0  0  0  0  0  0  0  0  0  0  0
  1 14  1  0  0  0  0
  1 16  1  0  0  0  0
  2 15  1  0  0  0  0
  2 17  1  0  0  0  0
  3 24  1  0  0  0  0
  3 32  1  0  0  0  0
  4 25  1  0  0  0  0
  4 33  1  0  0  0  0
  5 28  1  0  0  0  0
  5 30  1  0  0  0  0
  6 26  1  0  0  0  0
  6 35  1  0  0  0  0
  7 29  1  0  0  0  0
  7 57  1  0  0  0  0
  8 31  1  0  0  0  0
  8 70  1  0  0  0  0
  9 34  1  0  0  0  0
  9 72  1  0  0  0  0
 10 37  1  0  0  0  0
 10 42  1  0  0  0  0
 11 39  1  0  0  0  0
 11 78  1  0  0  0  0
 12 13  1  0  0  0  0
 12 14  1  0  0  0  0
 12 17  1  0  0  0  0
 12 43  1  0  0  0  0
 13 15  1  0  0  0  0
 13 16  1  0  0  0  0
 13 44  1  0  0  0  0
 14 18  1  0  0  0  0
 14 45  1  0  0  0  0
 15 19  1  0  0  0  0
 15 46  1  0  0  0  0
 16 47  1  0  0  0  0
 16 48  1  0  0  0  0
 17 49  1  0  0  0  0
 17 50  1  0  0  0  0
 18 20  2  0  0  0  0
 18 21  1  0  0  0  0
 19 22  2  0  0  0  0
 19 23  1  0  0  0  0
 20 25  1  0  0  0  0
 20 51  1  0  0  0  0
 21 24  2  0  0  0  0
 21 52  1  0  0  0  0
 22 26  1  0  0  0  0
 22 53  1  0  0  0  0
 23 27  2  0  0  0  0
 23 54  1  0  0  0  0
 24 28  1  0  0  0  0
 25 28  2  0  0  0  0
 26 29  2  0  0  0  0
 27 29  1  0  0  0  0
 27 55  1  0  0  0  0
 30 31  1  0  0  0  0
 30 34  1  0  0  0  0
 30 56  1  0  0  0  0
 31 36  1  0  0  0  0
 31 58  1  0  0  0  0
 32 59  1  0  0  0  0
 32 60  1  0  0  0  0
 32 61  1  0  0  0  0
 33 62  1  0  0  0  0
 33 63  1  0  0  0  0
 33 64  1  0  0  0  0
 34 65  1  0  0  0  0
 34 66  1  0  0  0  0
 35 67  1  0  0  0  0
 35 68  1  0  0  0  0
 35 69  1  0  0  0  0
 36 37  2  0  0  0  0
 36 38  1  0  0  0  0
 37 39  1  0  0  0  0
 38 40  2  0  0  0  0
 38 71  1  0  0  0  0
 39 41  2  0  0  0  0
 40 41  1  0  0  0  0
 40 73  1  0  0  0  0
 41 74  1  0  0  0  0
 42 75  1  0  0  0  0
 42 76  1  0  0  0  0
 42 77  1  0  0  0  0
M  END
> <PUBCHEM_COMPOUND_CID>
56680033

> <PUBCHEM_CONFORMER_RMSD>
1.2

> <PUBCHEM_CONFORMER_DIVERSEORDER>
2
31
55
21
49
37
6
45
14
13
50
48
25
35
33
44
11
42
5
43
51
30
22
12
41
4
8
34
23
27
40
18
16
47
53
46
20
38
39
52
7
29
24
54
19
26
36
9
32
3
28
15
1
10
17

> <PUBCHEM_MMFF94_PARTIAL_CHARGES>
52
1 -0.56
10 -0.36
11 -0.53
14 0.42
15 0.42
16 0.28
17 0.28
18 -0.14
19 -0.14
2 -0.56
20 -0.15
21 -0.15
22 -0.15
23 -0.15
24 0.08
25 0.08
26 0.08
27 -0.15
28 0.08
29 0.08
3 -0.36
30 0.28
31 0.42
32 0.28
33 0.28
34 0.28
35 0.28
36 -0.14
37 0.08
38 -0.15
39 0.08
4 -0.36
40 -0.15
41 -0.15
42 0.28
5 -0.36
51 0.15
52 0.15
53 0.15
54 0.15
55 0.15
57 0.45
6 -0.36
7 -0.53
70 0.4
71 0.15
72 0.4
73 0.15
74 0.15
78 0.45
8 -0.68
9 -0.68

> <PUBCHEM_EFFECTIVE_ROTOR_COUNT>
12.2

> <PUBCHEM_PHARMACOPHORE_FEATURES>
18
1 1 acceptor
1 10 acceptor
1 11 donor
1 2 acceptor
1 3 acceptor
1 4 acceptor
1 5 acceptor
1 6 acceptor
1 7 donor
1 8 acceptor
1 8 donor
1 9 acceptor
1 9 donor
5 1 12 13 14 16 rings
5 2 12 13 15 17 rings
6 18 20 21 24 25 28 rings
6 19 22 23 26 27 29 rings
6 36 37 38 39 40 41 rings

> <PUBCHEM_HEAVY_ATOM_COUNT>
42

> <PUBCHEM_ATOM_DEF_STEREO_COUNT>
6

> <PUBCHEM_ATOM_UDEF_STEREO_COUNT>
0

> <PUBCHEM_BOND_DEF_STEREO_COUNT>
0

> <PUBCHEM_BOND_UDEF_STEREO_COUNT>
0

> <PUBCHEM_ISOTOPIC_ATOM_COUNT>
0

> <PUBCHEM_COMPONENT_COUNT>
1

> <PUBCHEM_CACTVS_TAUTO_COUNT>
8

> <PUBCHEM_CONFORMER_ID>
0360DE6100000002

> <PUBCHEM_MMFF94_ENERGY>
175.1218

> <PUBCHEM_FEATURE_SELFOVERLAP>
91.854

> <PUBCHEM_SHAPE_FINGERPRINT>
10165383 225 18340773646791410257
10190206 1 18408595973257206935
10369192 42 18337958883690995477
10577160 183 18040987415905354562
10670039 82 18259980492193176695
11007060 377 18335987536171835042
11135926 11 16415767414205468334
11434127 23 18271520910398464757
11505856 67 16914833417974859656
12082328 90 18413669101862492726
13383668 90 18060422456399951335
13811026 1 18340480166695609984
14118638 360 18186518808858906378
150020 25 17846781806561987852
15183329 4 17748543745317924486
15328684 2 17749654256636820032
15604295 49 18263085582520445108
1577012 14 18260268534333242738
15975801 100 17386271091762849365
21033650 10 18260266369453564931
21781051 124 10881403098448605640
23559900 14 18201719613031374122
44249763 50 18410006650796127852
44555599 121 17240770614347605156
44802255 64 18335422386942697375
44880568 143 18343306968315321128
4516262 110 18120932807909450413
54039377 194 14620789448912096069
58083652 198 15357692024999842524
6691757 9 16660647371078146698

> <PUBCHEM_SHAPE_MULTIPOLES>
799.78
24.83
4.01
2.01
53.05
1.11
0.11
-10.55
5.13
-9.94
0.27
1.12
-0.85
0.85

> <PUBCHEM_SHAPE_SELFOVERLAP>
1737.269

> <PUBCHEM_SHAPE_VOLUME>
439.7

> <PUBCHEM_COORDINATE_TYPE>
2
5
10

$$$$
