485186
  -OEChem-09082007243D

 42 45  0     0  0  0  0  0  0999 V2000
    0.4157    0.6652    0.2347 O   0  0  0  0  0  0  0  0  0  0  0  0
   -1.4773    2.8843    0.3879 O   0  0  0  0  0  0  0  0  0  0  0  0
    5.3585    1.4362   -0.2788 O   0  0  0  0  0  0  0  0  0  0  0  0
    6.4480   -0.7121   -0.3514 O   0  0  0  0  0  0  0  0  0  0  0  0
   -7.7911   -1.0778   -1.6839 O   0  0  0  0  0  0  0  0  0  0  0  0
   -1.2775   -0.8173    0.4308 C   0  0  0  0  0  0  0  0  0  0  0  0
   -3.5815   -0.1281    0.6509 C   0  0  0  0  0  0  0  0  0  0  0  0
   -5.0266   -0.4718    0.8020 C   0  0  0  0  0  0  0  0  0  0  0  0
   -0.9332    0.5293    0.3731 C   0  0  0  0  0  0  0  0  0  0  0  0
   -2.6340   -1.1580    0.5731 C   0  0  0  0  0  0  0  0  0  0  0  0
    0.9297   -0.5884    0.2044 C   0  0  0  0  0  0  0  0  0  0  0  0
   -0.0564   -1.5330    0.3198 C   0  0  0  0  0  0  0  0  0  0  0  0
   -1.8517    1.5748    0.4478 C   0  0  0  0  0  0  0  0  0  0  0  0
   -5.7290   -0.6292   -0.5515 C   0  0  0  0  0  0  0  0  0  0  0  0
   -3.1948    1.2132    0.5891 C   0  0  0  0  0  0  0  0  0  0  0  0
    2.3642   -0.6569    0.0611 C   0  0  0  0  0  0  0  0  0  0  0  0
    3.1085    0.5214   -0.0342 C   0  0  0  0  0  0  0  0  0  0  0  0
    4.4765    0.4055   -0.1704 C   0  0  0  0  0  0  0  0  0  0  0  0
    2.9999   -1.9102    0.0185 C   0  0  0  0  0  0  0  0  0  0  0  0
   -7.2127   -0.9314   -0.3942 C   0  0  0  0  0  0  0  0  0  0  0  0
    5.0988   -0.8213   -0.2119 C   0  0  0  0  0  0  0  0  0  0  0  0
    4.3871   -1.9997   -0.1198 C   0  0  0  0  0  0  0  0  0  0  0  0
    6.6057    0.7208   -0.3924 C   0  0  0  0  0  0  0  0  0  0  0  0
   -1.4267    3.4844   -0.9045 C   0  0  0  0  0  0  0  0  0  0  0  0
   -5.5301    0.3036    1.3939 H   0  0  0  0  0  0  0  0  0  0  0  0
   -5.1297   -1.3971    1.3835 H   0  0  0  0  0  0  0  0  0  0  0  0
   -2.9365   -2.2003    0.6193 H   0  0  0  0  0  0  0  0  0  0  0  0
    0.0651   -2.6073    0.3259 H   0  0  0  0  0  0  0  0  0  0  0  0
   -5.2551   -1.4284   -1.1365 H   0  0  0  0  0  0  0  0  0  0  0  0
   -5.6094    0.2814   -1.1532 H   0  0  0  0  0  0  0  0  0  0  0  0
   -3.9476    1.9971    0.6499 H   0  0  0  0  0  0  0  0  0  0  0  0
    2.6584    1.5084   -0.0063 H   0  0  0  0  0  0  0  0  0  0  0  0
    2.4336   -2.8354    0.0914 H   0  0  0  0  0  0  0  0  0  0  0  0
   -7.3641   -1.8614    0.1629 H   0  0  0  0  0  0  0  0  0  0  0  0
   -7.7239   -0.1159    0.1270 H   0  0  0  0  0  0  0  0  0  0  0  0
    4.8813   -2.9640   -0.1533 H   0  0  0  0  0  0  0  0  0  0  0  0
    7.2614    1.0255    0.4313 H   0  0  0  0  0  0  0  0  0  0  0  0
    7.0819    0.9944   -1.3410 H   0  0  0  0  0  0  0  0  0  0  0  0
   -2.4152    3.4668   -1.3744 H   0  0  0  0  0  0  0  0  0  0  0  0
   -0.6993    2.9678   -1.5387 H   0  0  0  0  0  0  0  0  0  0  0  0
   -1.1127    4.5251   -0.7876 H   0  0  0  0  0  0  0  0  0  0  0  0
   -8.7353   -1.2696   -1.5527 H   0  0  0  0  0  0  0  0  0  0  0  0
  1  9  1  0  0  0  0
  1 11  1  0  0  0  0
  2 13  1  0  0  0  0
  2 24  1  0  0  0  0
  3 18  1  0  0  0  0
  3 23  1  0  0  0  0
  4 21  1  0  0  0  0
  4 23  1  0  0  0  0
  5 20  1  0  0  0  0
  5 42  1  0  0  0  0
  6  9  2  0  0  0  0
  6 10  1  0  0  0  0
  6 12  1  0  0  0  0
  7  8  1  0  0  0  0
  7 10  2  0  0  0  0
  7 15  1  0  0  0  0
  8 14  1  0  0  0  0
  8 25  1  0  0  0  0
  8 26  1  0  0  0  0
  9 13  1  0  0  0  0
 10 27  1  0  0  0  0
 11 12  2  0  0  0  0
 11 16  1  0  0  0  0
 12 28  1  0  0  0  0
 13 15  2  0  0  0  0
 14 20  1  0  0  0  0
 14 29  1  0  0  0  0
 14 30  1  0  0  0  0
 15 31  1  0  0  0  0
 16 17  2  0  0  0  0
 16 19  1  0  0  0  0
 17 18  1  0  0  0  0
 17 32  1  0  0  0  0
 18 21  2  0  0  0  0
 19 22  2  0  0  0  0
 19 33  1  0  0  0  0
 20 34  1  0  0  0  0
 20 35  1  0  0  0  0
 21 22  1  0  0  0  0
 22 36  1  0  0  0  0
 23 37  1  0  0  0  0
 23 38  1  0  0  0  0
 24 39  1  0  0  0  0
 24 40  1  0  0  0  0
 24 41  1  0  0  0  0
M  END
> <PUBCHEM_COMPOUND_CID>
485186

> <PUBCHEM_CONFORMER_RMSD>
0.8

> <PUBCHEM_CONFORMER_DIVERSEORDER>
2
17
32
13
22
28
30
24
27
20
6
12
14
31
25
9
8
1
29
21
23
3
19
5
10
7
15
18
16
26
11
4

> <PUBCHEM_MMFF94_PARTIAL_CHARGES>
29
1 -0.28
10 -0.15
11 0.09
12 -0.15
13 0.08
15 -0.15
16 0.05
17 -0.15
18 0.08
19 -0.15
2 -0.36
20 0.28
21 0.08
22 -0.15
23 0.56
24 0.28
27 0.15
28 0.15
3 -0.36
31 0.15
32 0.15
33 0.15
36 0.15
4 -0.36
42 0.4
5 -0.68
7 -0.14
8 0.14
9 0.14

> <PUBCHEM_EFFECTIVE_ROTOR_COUNT>
5.6

> <PUBCHEM_PHARMACOPHORE_FEATURES>
10
1 1 acceptor
1 2 acceptor
1 3 acceptor
1 4 acceptor
1 5 acceptor
1 5 donor
5 1 6 9 11 12 rings
5 3 4 18 21 23 rings
6 16 17 18 19 21 22 rings
6 6 7 9 10 13 15 rings

> <PUBCHEM_HEAVY_ATOM_COUNT>
24

> <PUBCHEM_ATOM_DEF_STEREO_COUNT>
0

> <PUBCHEM_ATOM_UDEF_STEREO_COUNT>
0

> <PUBCHEM_BOND_DEF_STEREO_COUNT>
0

> <PUBCHEM_BOND_UDEF_STEREO_COUNT>
0

> <PUBCHEM_ISOTOPIC_ATOM_COUNT>
0

> <PUBCHEM_COMPONENT_COUNT>
1

> <PUBCHEM_CACTVS_TAUTO_COUNT>
1

> <PUBCHEM_CONFORMER_ID>
0007674200000002

> <PUBCHEM_MMFF94_ENERGY>
60.5363

> <PUBCHEM_FEATURE_SELFOVERLAP>
51.008

> <PUBCHEM_SHAPE_FINGERPRINT>
10 15 18409443731361308320
10595046 47 18341897350962233274
10670039 82 18115892745264892420
11497681 19 18060422395521160079
11524674 6 14692569936224111591
12107183 9 17541660509472268018
12236239 1 18130793338769220635
12788726 201 18260264118711126521
13533116 47 17458618970166531274
13862211 1 18413388726803747243
13914758 101 15791720876245305509
14123256 10 18342458157700729823
14347332 77 18267302028100284194
14508225 48 18334855018195564805
1454969 45 18272370884331559495
15131766 46 16155980459414472790
15196674 1 18337959978601557984
15198563 99 18187642449882172373
15849732 13 18201717392950019823
16087824 20 18338517419115031193
167882 2 17972887144399112365
17492 89 18125161528875522078
18222031 100 18341041987225106787
2026 5 17272870718940381006
21150785 3 18273213123249964127
21236236 1 18340772542383590633
21267235 1 18411149034112401419
21315764 268 18408884032455815596
221357 26 18341897385738839376
23352939 185 18273220806566733633
23402539 116 18412545384394926979
23522609 53 17772781387846231153
23559900 14 18336827618689589937
283562 15 18336829676458829737
3009799 131 17748824125072706335
34797466 226 17131840889113442556
350125 39 18411706456606748488
3545911 37 18408892836853455202
3633792 109 16588573206924677755
4073 2 17968388943761716290
4214541 1 18337678495214377688
4325135 7 18272652354701884542
474 4 17676501579140179204
497634 4 17988933223288051473
5104073 3 18264213522082150658
5283173 99 17968650519912175829
5969126 39 18411695466307638477
59755656 215 18334577932084437246
9709674 26 18266754501796617482

> <PUBCHEM_SHAPE_MULTIPOLES>
464.56
17.32
2.42
0.87
5.57
2.16
0.15
-5.31
5.64
0.35
0.33
1.21
-0.01
-0.57

> <PUBCHEM_SHAPE_SELFOVERLAP>
1030.068

> <PUBCHEM_SHAPE_VOLUME>
250.8

> <PUBCHEM_COORDINATE_TYPE>
2
5
10

$$$$
