5378284
  -OEChem-09082007093D

 36 38  0     0  0  0  0  0  0999 V2000
   -0.4712    1.8463   -0.1315 O   0  0  0  0  0  0  0  0  0  0  0  0
    2.8765   -1.6672    0.0851 O   0  0  0  0  0  0  0  0  0  0  0  0
    4.8205    0.2495   -0.0868 O   0  0  0  0  0  0  0  0  0  0  0  0
    0.3205   -2.1578    0.1568 O   0  0  0  0  0  0  0  0  0  0  0  0
   -2.2412   -2.6683    0.2315 O   0  0  0  0  0  0  0  0  0  0  0  0
   -5.1479    1.0758   -0.0088 O   0  0  0  0  0  0  0  0  0  0  0  0
    1.1631    0.0351   -0.0187 C   0  0  0  0  0  0  0  0  0  0  0  0
   -1.2922   -0.4464    0.0518 C   0  0  0  0  0  0  0  0  0  0  0  0
    0.8217    1.3838   -0.1151 C   0  0  0  0  0  0  0  0  0  0  0  0
   -1.4909    0.9304   -0.0486 C   0  0  0  0  0  0  0  0  0  0  0  0
    0.0853   -0.9618    0.0712 C   0  0  0  0  0  0  0  0  0  0  0  0
    2.5037   -0.3590   -0.0080 C   0  0  0  0  0  0  0  0  0  0  0  0
   -2.3822   -1.3171    0.1321 C   0  0  0  0  0  0  0  0  0  0  0  0
    1.8290    2.3470   -0.2014 C   0  0  0  0  0  0  0  0  0  0  0  0
    3.5056    0.6080   -0.0945 C   0  0  0  0  0  0  0  0  0  0  0  0
   -2.7903    1.4412   -0.0691 C   0  0  0  0  0  0  0  0  0  0  0  0
    3.1691    1.9584   -0.1911 C   0  0  0  0  0  0  0  0  0  0  0  0
   -3.8819    0.5758    0.0110 C   0  0  0  0  0  0  0  0  0  0  0  0
   -3.6780   -0.8007    0.1113 C   0  0  0  0  0  0  0  0  0  0  0  0
    3.0355   -2.3831   -1.1375 C   0  0  0  0  0  0  0  0  0  0  0  0
    5.4634    0.1738    1.1838 C   0  0  0  0  0  0  0  0  0  0  0  0
   -6.2182    0.1362    0.0765 C   0  0  0  0  0  0  0  0  0  0  0  0
    1.5780    3.4017   -0.2772 H   0  0  0  0  0  0  0  0  0  0  0  0
   -2.9543    2.5133   -0.1471 H   0  0  0  0  0  0  0  0  0  0  0  0
    3.9466    2.7146   -0.2597 H   0  0  0  0  0  0  0  0  0  0  0  0
   -4.4879   -1.5201    0.1765 H   0  0  0  0  0  0  0  0  0  0  0  0
   -1.3031   -2.9126    0.2356 H   0  0  0  0  0  0  0  0  0  0  0  0
    3.9645   -2.0792   -1.6295 H   0  0  0  0  0  0  0  0  0  0  0  0
    2.1898   -2.2203   -1.8134 H   0  0  0  0  0  0  0  0  0  0  0  0
    3.0974   -3.4496   -0.9045 H   0  0  0  0  0  0  0  0  0  0  0  0
    4.9724   -0.5680    1.8214 H   0  0  0  0  0  0  0  0  0  0  0  0
    5.4596    1.1524    1.6742 H   0  0  0  0  0  0  0  0  0  0  0  0
    6.5006   -0.1338    1.0250 H   0  0  0  0  0  0  0  0  0  0  0  0
   -6.2050   -0.4040    1.0292 H   0  0  0  0  0  0  0  0  0  0  0  0
   -6.2302   -0.5400   -0.7851 H   0  0  0  0  0  0  0  0  0  0  0  0
   -7.1521    0.7070    0.0466 H   0  0  0  0  0  0  0  0  0  0  0  0
  1  9  1  0  0  0  0
  1 10  1  0  0  0  0
  2 12  1  0  0  0  0
  2 20  1  0  0  0  0
  3 15  1  0  0  0  0
  3 21  1  0  0  0  0
  4 11  2  0  0  0  0
  5 13  1  0  0  0  0
  5 27  1  0  0  0  0
  6 18  1  0  0  0  0
  6 22  1  0  0  0  0
  7  9  2  0  0  0  0
  7 11  1  0  0  0  0
  7 12  1  0  0  0  0
  8 10  1  0  0  0  0
  8 11  1  0  0  0  0
  8 13  2  0  0  0  0
  9 14  1  0  0  0  0
 10 16  2  0  0  0  0
 12 15  2  0  0  0  0
 13 19  1  0  0  0  0
 14 17  2  0  0  0  0
 14 23  1  0  0  0  0
 15 17  1  0  0  0  0
 16 18  1  0  0  0  0
 16 24  1  0  0  0  0
 17 25  1  0  0  0  0
 18 19  2  0  0  0  0
 19 26  1  0  0  0  0
 20 28  1  0  0  0  0
 20 29  1  0  0  0  0
 20 30  1  0  0  0  0
 21 31  1  0  0  0  0
 21 32  1  0  0  0  0
 21 33  1  0  0  0  0
 22 34  1  0  0  0  0
 22 35  1  0  0  0  0
 22 36  1  0  0  0  0
M  END
> <PUBCHEM_COMPOUND_CID>
5378284

> <PUBCHEM_CONFORMER_RMSD>
0.6

> <PUBCHEM_CONFORMER_DIVERSEORDER>
2
3
4
1

> <PUBCHEM_MMFF94_PARTIAL_CHARGES>
27
1 -0.17
10 0.08
11 0.4
12 0.08
13 0.08
14 -0.15
15 0.08
16 -0.15
17 -0.15
18 0.08
19 -0.15
2 -0.36
20 0.28
21 0.28
22 0.28
23 0.15
24 0.15
25 0.15
26 0.15
27 0.45
3 -0.36
4 -0.57
5 -0.53
6 -0.36
7 0.09
8 0.09
9 0.08

> <PUBCHEM_EFFECTIVE_ROTOR_COUNT>
3

> <PUBCHEM_PHARMACOPHORE_FEATURES>
9
1 1 acceptor
1 2 acceptor
1 3 acceptor
1 4 acceptor
1 5 donor
1 6 acceptor
6 1 7 8 9 10 11 rings
6 7 9 12 14 15 17 rings
6 8 10 13 16 18 19 rings

> <PUBCHEM_HEAVY_ATOM_COUNT>
22

> <PUBCHEM_ATOM_DEF_STEREO_COUNT>
0

> <PUBCHEM_ATOM_UDEF_STEREO_COUNT>
0

> <PUBCHEM_BOND_DEF_STEREO_COUNT>
0

> <PUBCHEM_BOND_UDEF_STEREO_COUNT>
0

> <PUBCHEM_ISOTOPIC_ATOM_COUNT>
0

> <PUBCHEM_COMPONENT_COUNT>
1

> <PUBCHEM_CACTVS_TAUTO_COUNT>
5

> <PUBCHEM_CONFORMER_ID>
005210EC00000002

> <PUBCHEM_MMFF94_ENERGY>
99.3321

> <PUBCHEM_FEATURE_SELFOVERLAP>
45.747

> <PUBCHEM_SHAPE_FINGERPRINT>
10062212 137 18337946908625854858
10411042 1 18050288059857660310
10616163 171 18339928241379821110
10906281 52 18263096521284474736
10967382 1 18410013225663057804
11132069 177 18410575084905756536
11471102 20 18410292488979563429
11578080 2 13697310744749764428
12011746 2 18411987949063495548
12236239 1 17704071781203019501
12633257 1 18333724741246912312
12838862 33 18337652179343398800
13140716 1 18266171915131048896
13533116 47 17775287106062768163
14790565 3 18337680711185984801
15099037 51 18409449189473326773
15196674 1 18337110193088159665
15375358 24 18412826893151309222
15442244 35 18339646616184451184
15536298 74 18342178830028163278
1601671 61 18410857668279591092
16945 1 18264488390644895524
1813 80 17168146711269694108
19141452 34 18411418440557914919
19591789 44 18121221974159081983
200 152 18060698407583961893
20645477 70 18412265004249976087
21267235 1 18409738347729694547
21279426 13 18194120712136293957
21285901 2 18262523580604010492
21421861 104 17822843161934402234
21859007 373 17678152941904165245
22182313 1 18263354790067627844
2334 1 18337675333448307317
23402539 116 18341604949351266830
23559900 14 18413672409604306718
2748010 2 18408889554817835686
3004659 81 18259707800772863052
335352 9 18409448102793782212
34934 24 18411695500081625686
350125 39 18408042930886196741
3545911 37 18412265029877224844
3680242 22 18261955128776299442
4072396 5 18410845561051458090
4214541 1 18409449219522241017
42630746 31 18412826871644609924
465052 167 17966970526042120760
495365 180 17703217520581573760
5104073 3 18264771132642487488
59755656 215 18412268303148914822
69090 78 18410854369802548125
7364860 26 18341898480665154646
9709674 26 18411143562261054999
9981440 41 17107910258558091208

> <PUBCHEM_SHAPE_MULTIPOLES>
417.53
10.59
2.46
0.73
5.23
0.68
0.01
-1.12
1.29
-0.86
-0.33
-0.56
0.13
0.41

> <PUBCHEM_SHAPE_SELFOVERLAP>
926.293

> <PUBCHEM_SHAPE_VOLUME>
223.3

> <PUBCHEM_COORDINATE_TYPE>
2
5
10

$$$$
