134814038
  -OEChem-09082007253D

 45 48  0     0  0  0  0  0  0999 V2000
    1.4951    0.9013   -0.1266 O   0  0  0  0  0  0  0  0  0  0  0  0
    6.5241    0.7171   -0.3259 O   0  0  0  0  0  0  0  0  0  0  0  0
    7.2047   -1.5692    0.0167 O   0  0  0  0  0  0  0  0  0  0  0  0
    0.0332    3.4074   -0.4700 O   0  0  0  0  0  0  0  0  0  0  0  0
   -6.7516   -1.4800   -0.1506 O   0  0  0  0  0  0  0  0  0  0  0  0
   -6.9183    0.7840    0.2782 O   0  0  0  0  0  0  0  0  0  0  0  0
   -0.4491   -0.2170    0.1439 C   0  0  0  0  0  0  0  0  0  0  0  0
    1.7796   -0.4117    0.0746 C   0  0  0  0  0  0  0  0  0  0  0  0
    0.1384    1.0231   -0.0849 C   0  0  0  0  0  0  0  0  0  0  0  0
    3.1830   -0.7478    0.0659 C   0  0  0  0  0  0  0  0  0  0  0  0
    0.6251   -1.1399    0.2457 C   0  0  0  0  0  0  0  0  0  0  0  0
   -0.5764    2.2087   -0.2459 C   0  0  0  0  0  0  0  0  0  0  0  0
   -1.8509   -0.2925    0.2195 C   0  0  0  0  0  0  0  0  0  0  0  0
    4.1345    0.2540   -0.1406 C   0  0  0  0  0  0  0  0  0  0  0  0
   -2.5970    0.8836    0.0613 C   0  0  0  0  0  0  0  0  0  0  0  0
    5.4638   -0.1157   -0.1408 C   0  0  0  0  0  0  0  0  0  0  0  0
    5.8524   -1.4212    0.0549 C   0  0  0  0  0  0  0  0  0  0  0  0
    3.5800   -2.0817    0.2657 C   0  0  0  0  0  0  0  0  0  0  0  0
   -1.9687    2.1106   -0.1671 C   0  0  0  0  0  0  0  0  0  0  0  0
    4.9331   -2.4292    0.2613 C   0  0  0  0  0  0  0  0  0  0  0  0
    7.6238   -0.2106   -0.2245 C   0  0  0  0  0  0  0  0  0  0  0  0
   -4.0494    0.8223    0.1356 C   0  0  0  0  0  0  0  0  0  0  0  0
   -4.7920   -0.2936   -0.0329 C   0  0  0  0  0  0  0  0  0  0  0  0
    0.3799    4.1810    0.6765 C   0  0  0  0  0  0  0  0  0  0  0  0
   -6.2681   -0.2252    0.0569 C   0  0  0  0  0  0  0  0  0  0  0  0
   -8.1765   -1.6063   -0.0993 C   0  0  0  0  0  0  0  0  0  0  0  0
   -8.5527   -3.0514   -0.3477 C   0  0  0  0  0  0  0  0  0  0  0  0
    0.5479   -2.2038    0.4227 H   0  0  0  0  0  0  0  0  0  0  0  0
   -2.3046   -1.2575    0.4180 H   0  0  0  0  0  0  0  0  0  0  0  0
    3.8710    1.2947   -0.2986 H   0  0  0  0  0  0  0  0  0  0  0  0
    2.8504   -2.8713    0.4277 H   0  0  0  0  0  0  0  0  0  0  0  0
   -2.5626    3.0151   -0.2903 H   0  0  0  0  0  0  0  0  0  0  0  0
    5.2437   -3.4564    0.4147 H   0  0  0  0  0  0  0  0  0  0  0  0
    8.2758    0.1067    0.5974 H   0  0  0  0  0  0  0  0  0  0  0  0
    8.1956   -0.1805   -1.1591 H   0  0  0  0  0  0  0  0  0  0  0  0
   -4.5480    1.7688    0.3338 H   0  0  0  0  0  0  0  0  0  0  0  0
   -4.3591   -1.2617   -0.2581 H   0  0  0  0  0  0  0  0  0  0  0  0
    0.8570    5.1041    0.3363 H   0  0  0  0  0  0  0  0  0  0  0  0
    1.0863    3.6337    1.3088 H   0  0  0  0  0  0  0  0  0  0  0  0
   -0.5161    4.4398    1.2497 H   0  0  0  0  0  0  0  0  0  0  0  0
   -8.5353   -1.2946    0.8880 H   0  0  0  0  0  0  0  0  0  0  0  0
   -8.6274   -0.9688   -0.8680 H   0  0  0  0  0  0  0  0  0  0  0  0
   -9.6377   -3.1842   -0.3154 H   0  0  0  0  0  0  0  0  0  0  0  0
   -8.0941   -3.7034    0.4030 H   0  0  0  0  0  0  0  0  0  0  0  0
   -8.1846   -3.3830   -1.3242 H   0  0  0  0  0  0  0  0  0  0  0  0
  1  8  1  0  0  0  0
  1  9  1  0  0  0  0
  2 16  1  0  0  0  0
  2 21  1  0  0  0  0
  3 17  1  0  0  0  0
  3 21  1  0  0  0  0
  4 12  1  0  0  0  0
  4 24  1  0  0  0  0
  5 25  1  0  0  0  0
  5 26  1  0  0  0  0
  6 25  2  0  0  0  0
  7  9  2  0  0  0  0
  7 11  1  0  0  0  0
  7 13  1  0  0  0  0
  8 10  1  0  0  0  0
  8 11  2  0  0  0  0
  9 12  1  0  0  0  0
 10 14  2  0  0  0  0
 10 18  1  0  0  0  0
 11 28  1  0  0  0  0
 12 19  2  0  0  0  0
 13 15  2  0  0  0  0
 13 29  1  0  0  0  0
 14 16  1  0  0  0  0
 14 30  1  0  0  0  0
 15 19  1  0  0  0  0
 15 22  1  0  0  0  0
 16 17  2  0  0  0  0
 17 20  1  0  0  0  0
 18 20  2  0  0  0  0
 18 31  1  0  0  0  0
 19 32  1  0  0  0  0
 20 33  1  0  0  0  0
 21 34  1  0  0  0  0
 21 35  1  0  0  0  0
 22 23  2  3  0  0  0
 22 36  1  0  0  0  0
 23 25  1  0  0  0  0
 23 37  1  0  0  0  0
 24 38  1  0  0  0  0
 24 39  1  0  0  0  0
 24 40  1  0  0  0  0
 26 27  1  0  0  0  0
 26 41  1  0  0  0  0
 26 42  1  0  0  0  0
 27 43  1  0  0  0  0
 27 44  1  0  0  0  0
 27 45  1  0  0  0  0
M  END
> <PUBCHEM_COMPOUND_CID>
134814038

> <PUBCHEM_CONFORMER_RMSD>
0.8

> <PUBCHEM_CONFORMER_DIVERSEORDER>
1
14
11
7
16
6
23
30
2
24
19
10
25
27
4
5
8
17
9
13
12
18
31
15
28
20
21
3
26
29
22

> <PUBCHEM_MMFF94_PARTIAL_CHARGES>
33
1 -0.28
10 0.05
11 -0.15
12 0.08
13 -0.15
14 -0.15
15 0.03
16 0.08
17 0.08
18 -0.15
19 -0.15
2 -0.36
20 -0.15
21 0.56
22 -0.18
23 -0.14
24 0.28
25 0.71
26 0.28
28 0.15
29 0.15
3 -0.36
30 0.15
31 0.15
32 0.15
33 0.15
36 0.15
37 0.15
4 -0.36
5 -0.43
6 -0.57
8 0.09
9 0.14

> <PUBCHEM_EFFECTIVE_ROTOR_COUNT>
6.6

> <PUBCHEM_PHARMACOPHORE_FEATURES>
9
1 1 acceptor
1 2 acceptor
1 3 acceptor
1 4 acceptor
1 6 acceptor
5 1 7 8 9 11 rings
5 2 3 16 17 21 rings
6 10 14 16 17 18 20 rings
6 7 9 12 13 15 19 rings

> <PUBCHEM_HEAVY_ATOM_COUNT>
27

> <PUBCHEM_ATOM_DEF_STEREO_COUNT>
0

> <PUBCHEM_ATOM_UDEF_STEREO_COUNT>
0

> <PUBCHEM_BOND_DEF_STEREO_COUNT>
0

> <PUBCHEM_BOND_UDEF_STEREO_COUNT>
1

> <PUBCHEM_ISOTOPIC_ATOM_COUNT>
0

> <PUBCHEM_COMPONENT_COUNT>
1

> <PUBCHEM_CACTVS_TAUTO_COUNT>
1

> <PUBCHEM_CONFORMER_ID>
0809195600000001

> <PUBCHEM_MMFF94_ENERGY>
70.9403

> <PUBCHEM_FEATURE_SELFOVERLAP>
45.934

> <PUBCHEM_SHAPE_FINGERPRINT>
10 15 11743844673226328983
10050765 1 17977102358193515978
10299344 5 18342177765298598243
10411042 1 18410855469314844929
10595046 47 18263364703553428784
11135609 99 18267868462179667703
11497681 19 18341051813889260086
11524674 6 16343698837841251599
11578080 2 16843299428401659858
11724838 91 18333733512081970126
11963148 33 18411130312646429151
12166972 35 17894634742677717260
12516196 113 18411418401665838913
13248334 5 18122343751135814573
13690498 29 18187635909068037741
13862211 1 18409451379911844435
14068700 675 18272934938497829401
14178184 131 18058166310370071119
14394314 77 18337394829841379889
1454969 45 18411420600647169334
15849732 13 18273213110375339279
15927050 60 17838054071960052196
15979999 66 18259982699991776517
16087824 20 18265332799651660293
16991971 28 18341902908576236983
17492 89 18050003295120539306
18006028 8 18410856546960856381
18335252 98 18412826880693961078
18681886 176 18341606049617470227
20028762 73 18411700945974167091
20554085 129 11891329902262737028
20771845 171 17897167042178760132
21049683 271 18411701019310306120
21130935 74 18199749142371707058
21267235 1 18411984658675447829
21403212 168 9367352522108944580
21774942 28 12613298838312938871
23522609 53 18122376564432612025
23559900 14 18262236737145318529
23569917 315 18268432344299890502
24771750 20 18046072815496728620
283562 15 18189336758017653480
2838139 119 7925622298693150659
335352 9 18409727345142022309
34797466 226 17775570832541118148
397830 11 15697133284264748531
4325135 7 18408887317693840510
4408954 64 15550750989116716357
4461854 278 17988650744075964951
5104073 3 18119809111219811880
54039377 194 18341612672895390679
57527295 17 17458894956786778617
6004065 56 18410011078174291307
6691757 9 16056876954155971119
9962374 69 18270392932403144671
999808 66 18041289842065123755

> <PUBCHEM_SHAPE_MULTIPOLES>
520.43
22.72
3.32
0.65
19.96
2.57
-0.01
-20.28
1.59
1.87
-0.18
-0.01
0.07
-0.66

> <PUBCHEM_SHAPE_SELFOVERLAP>
1149.887

> <PUBCHEM_SHAPE_VOLUME>
281.4

> <PUBCHEM_COORDINATE_TYPE>
2
5
10

$$$$
