3010930
  -OEChem-09082007313D

 49 52  0     1  0  0  0  0  0999 V2000
   -1.1840   -1.8451    0.0736 O   0  0  0  0  0  0  0  0  0  0  0  0
    1.2237    0.8383    1.5116 O   0  0  0  0  0  0  0  0  0  0  0  0
   -1.1026    1.0413   -1.1838 O   0  0  0  0  0  0  0  0  0  0  0  0
   -5.7980   -0.6848   -1.5776 O   0  0  0  0  0  0  0  0  0  0  0  0
    5.7630    1.7941   -0.3692 O   0  0  0  0  0  0  0  0  0  0  0  0
   -6.9515    0.7560    0.5009 O   0  0  0  0  0  0  0  0  0  0  0  0
    7.0720   -0.6581   -0.3663 O   0  0  0  0  0  0  0  0  0  0  0  0
   -0.5093    0.4407   -0.0473 C   0  0  2  0  0  0  0  0  0  0  0  0
    0.6593   -0.4282   -0.4381 C   0  0  1  0  0  0  0  0  0  0  0  0
   -1.4420   -0.5535    0.6638 C   0  0  1  0  0  0  0  0  0  0  0  0
    1.5398   -0.3875    0.8174 C   0  0  1  0  0  0  0  0  0  0  0  0
    0.1275    1.4813    0.8464 C   0  0  0  0  0  0  0  0  0  0  0  0
    0.0155   -1.7742   -0.7112 C   0  0  0  0  0  0  0  0  0  0  0  0
   -2.9116   -0.2065    0.6174 C   0  0  0  0  0  0  0  0  0  0  0  0
    3.0149   -0.4560    0.5019 C   0  0  0  0  0  0  0  0  0  0  0  0
   -3.6920   -0.6073   -0.4689 C   0  0  0  0  0  0  0  0  0  0  0  0
   -3.4935    0.5169    1.6604 C   0  0  0  0  0  0  0  0  0  0  0  0
    3.7222    0.7109    0.2074 C   0  0  0  0  0  0  0  0  0  0  0  0
    3.6740   -1.6864    0.5032 C   0  0  0  0  0  0  0  0  0  0  0  0
   -5.0486   -0.2861   -0.5120 C   0  0  0  0  0  0  0  0  0  0  0  0
    5.0846    0.6474   -0.0848 C   0  0  0  0  0  0  0  0  0  0  0  0
   -4.8501    0.8381    1.6174 C   0  0  0  0  0  0  0  0  0  0  0  0
    5.0363   -1.7500    0.2109 C   0  0  0  0  0  0  0  0  0  0  0  0
   -5.6277    0.4365    0.5311 C   0  0  0  0  0  0  0  0  0  0  0  0
    5.7417   -0.5830   -0.0830 C   0  0  0  0  0  0  0  0  0  0  0  0
   -5.8794    0.2114   -2.6841 C   0  0  0  0  0  0  0  0  0  0  0  0
    5.8156    2.1936   -1.7373 C   0  0  0  0  0  0  0  0  0  0  0  0
    1.1914   -0.0642   -1.3252 H   0  0  0  0  0  0  0  0  0  0  0  0
   -1.1508   -0.6703    1.7163 H   0  0  0  0  0  0  0  0  0  0  0  0
    1.2883   -1.1964    1.5151 H   0  0  0  0  0  0  0  0  0  0  0  0
    0.5274    2.3238    0.2706 H   0  0  0  0  0  0  0  0  0  0  0  0
   -0.5619    1.8878    1.5923 H   0  0  0  0  0  0  0  0  0  0  0  0
   -0.2828   -1.8552   -1.7620 H   0  0  0  0  0  0  0  0  0  0  0  0
    0.6615   -2.6237   -0.4719 H   0  0  0  0  0  0  0  0  0  0  0  0
   -1.7295    1.7165   -0.8728 H   0  0  0  0  0  0  0  0  0  0  0  0
   -3.2526   -1.1650   -1.2923 H   0  0  0  0  0  0  0  0  0  0  0  0
   -2.8984    0.8370    2.5115 H   0  0  0  0  0  0  0  0  0  0  0  0
    3.2238    1.6767    0.1926 H   0  0  0  0  0  0  0  0  0  0  0  0
    3.1355   -2.6029    0.7293 H   0  0  0  0  0  0  0  0  0  0  0  0
   -5.2951    1.4017    2.4329 H   0  0  0  0  0  0  0  0  0  0  0  0
    5.5357   -2.7151    0.2155 H   0  0  0  0  0  0  0  0  0  0  0  0
   -7.3453    0.3673   -0.2990 H   0  0  0  0  0  0  0  0  0  0  0  0
    7.3541   -1.5877   -0.3187 H   0  0  0  0  0  0  0  0  0  0  0  0
   -6.2981    1.1743   -2.3747 H   0  0  0  0  0  0  0  0  0  0  0  0
   -6.5388   -0.2313   -3.4356 H   0  0  0  0  0  0  0  0  0  0  0  0
   -4.8903    0.3585   -3.1293 H   0  0  0  0  0  0  0  0  0  0  0  0
    4.8078    2.3844   -2.1198 H   0  0  0  0  0  0  0  0  0  0  0  0
    6.3093    1.4280   -2.3440 H   0  0  0  0  0  0  0  0  0  0  0  0
    6.3952    3.1186   -1.8021 H   0  0  0  0  0  0  0  0  0  0  0  0
  1 10  1  0  0  0  0
  1 13  1  0  0  0  0
  2 11  1  0  0  0  0
  2 12  1  0  0  0  0
  3  8  1  0  0  0  0
  3 35  1  0  0  0  0
  4 20  1  0  0  0  0
  4 26  1  0  0  0  0
  5 21  1  0  0  0  0
  5 27  1  0  0  0  0
  6 24  1  0  0  0  0
  6 42  1  0  0  0  0
  7 25  1  0  0  0  0
  7 43  1  0  0  0  0
  8  9  1  0  0  0  0
  8 10  1  0  0  0  0
  8 12  1  0  0  0  0
  9 11  1  0  0  0  0
  9 13  1  0  0  0  0
  9 28  1  0  0  0  0
 10 14  1  0  0  0  0
 10 29  1  0  0  0  0
 11 15  1  0  0  0  0
 11 30  1  0  0  0  0
 12 31  1  0  0  0  0
 12 32  1  0  0  0  0
 13 33  1  0  0  0  0
 13 34  1  0  0  0  0
 14 16  2  0  0  0  0
 14 17  1  0  0  0  0
 15 18  2  0  0  0  0
 15 19  1  0  0  0  0
 16 20  1  0  0  0  0
 16 36  1  0  0  0  0
 17 22  2  0  0  0  0
 17 37  1  0  0  0  0
 18 21  1  0  0  0  0
 18 38  1  0  0  0  0
 19 23  2  0  0  0  0
 19 39  1  0  0  0  0
 20 24  2  0  0  0  0
 21 25  2  0  0  0  0
 22 24  1  0  0  0  0
 22 40  1  0  0  0  0
 23 25  1  0  0  0  0
 23 41  1  0  0  0  0
 26 44  1  0  0  0  0
 26 45  1  0  0  0  0
 26 46  1  0  0  0  0
 27 47  1  0  0  0  0
 27 48  1  0  0  0  0
 27 49  1  0  0  0  0
M  END
> <PUBCHEM_COMPOUND_CID>
3010930

> <PUBCHEM_CONFORMER_RMSD>
0.8

> <PUBCHEM_CONFORMER_DIVERSEORDER>
1
10
35
36
18
37
39
34
8
13
20
40
24
22
6
11
21
38
9
27
32
12
7
30
4
19
33
41
5
29
15
2
28
3
25
23
14
17
26
16
31

> <PUBCHEM_MMFF94_PARTIAL_CHARGES>
35
1 -0.56
10 0.42
11 0.42
12 0.28
13 0.28
14 -0.14
15 -0.14
16 -0.15
17 -0.15
18 -0.15
19 -0.15
2 -0.56
20 0.08
21 0.08
22 -0.15
23 -0.15
24 0.08
25 0.08
26 0.28
27 0.28
3 -0.68
35 0.4
36 0.15
37 0.15
38 0.15
39 0.15
4 -0.36
40 0.15
41 0.15
42 0.45
43 0.45
5 -0.36
6 -0.53
7 -0.53
8 0.28

> <PUBCHEM_EFFECTIVE_ROTOR_COUNT>
5.2

> <PUBCHEM_PHARMACOPHORE_FEATURES>
12
1 1 acceptor
1 2 acceptor
1 3 acceptor
1 3 donor
1 4 acceptor
1 5 acceptor
1 6 donor
1 7 donor
5 1 8 9 10 13 rings
5 2 8 9 11 12 rings
6 14 16 17 20 22 24 rings
6 15 18 19 21 23 25 rings

> <PUBCHEM_HEAVY_ATOM_COUNT>
27

> <PUBCHEM_ATOM_DEF_STEREO_COUNT>
4

> <PUBCHEM_ATOM_UDEF_STEREO_COUNT>
0

> <PUBCHEM_BOND_DEF_STEREO_COUNT>
0

> <PUBCHEM_BOND_UDEF_STEREO_COUNT>
0

> <PUBCHEM_ISOTOPIC_ATOM_COUNT>
0

> <PUBCHEM_COMPONENT_COUNT>
1

> <PUBCHEM_CACTVS_TAUTO_COUNT>
8

> <PUBCHEM_CONFORMER_ID>
002DF17200000001

> <PUBCHEM_MMFF94_ENERGY>
108.8626

> <PUBCHEM_FEATURE_SELFOVERLAP>
61.357

> <PUBCHEM_SHAPE_FINGERPRINT>
10554248 39 18411980243823848486
10906281 52 18201175285861059819
11315181 36 16487255478468441035
12011746 2 18342452642931047355
12166972 35 17275098466287523593
12236239 1 17632856434108837817
12516196 113 17385445431744610981
12788726 201 17703244931390112856
13533116 47 18338796707230481162
13782708 43 13902190391331509237
14528608 73 17988644116402135064
14790565 3 18343309158310194848
14840074 17 18408887347252099327
14856354 85 17775287188189010013
15183329 4 18413666902791737862
15840311 113 17968105238931847509
16079462 125 17022896865315863789
17349148 13 17632294597010927603
18222031 100 16988842795728560536
18681886 176 16845278462946857795
18927931 339 16774076298325547597
19319366 153 18335697244107774610
19489759 90 16415479337906058707
20567600 75 17458623385260944387
21033648 29 17458333165725531501
21130935 74 13118275971401596896
21150785 3 18261105327111764231
21236236 1 18336827473088320113
21267235 1 17560797771642359559
21315759 40 17775569702505977986
21709351 56 17774993592936331049
21792961 116 17895756189510373846
23081809 10 18202846543271346891
23402539 116 17275096233331582305
23522609 53 18058474082391915424
23559900 14 17916574487844764769
23569914 152 16744484879309697447
23569914 2 16520423444463065804
29717793 49 18059862753525583806
3004659 81 18341898468397704058
34797466 226 16443641128711547822
397830 11 16806750540185111224
4073 2 17968385648809598418
4325135 7 18410858746437558724
4340502 62 17022623078795006074
5104073 3 18335420231649064042
59755656 215 15482676757991400821
59755656 520 18408884045356613523
6328613 192 18411141358979482649
7495541 125 13542167451189989507

> <PUBCHEM_SHAPE_MULTIPOLES>
514.56
17.8
1.68
1.58
1.12
0.15
-0.53
3.4
-4.49
2.74
-0.36
-2.68
0.47
-1.13

> <PUBCHEM_SHAPE_SELFOVERLAP>
1127.563

> <PUBCHEM_SHAPE_VOLUME>
282

> <PUBCHEM_COORDINATE_TYPE>
2
5
10

$$$$
