75202444
  -OEChem-09082007263D

 51 53  0     1  0  0  0  0  0999 V2000
   -0.8701   -1.5096   -0.9167 O   0  0  0  0  0  0  0  0  0  0  0  0
    0.8345    2.8398    0.1796 O   0  0  0  0  0  0  0  0  0  0  0  0
    0.7840   -3.8446   -0.9979 O   0  0  0  0  0  0  0  0  0  0  0  0
   -5.0451   -1.1801    1.8003 O   0  0  0  0  0  0  0  0  0  0  0  0
   -6.5665    0.7781    0.5447 O   0  0  0  0  0  0  0  0  0  0  0  0
    0.9893    4.6021   -1.3063 O   0  0  0  0  0  0  0  0  0  0  0  0
    7.2814    1.0505    1.0561 O   0  0  0  0  0  0  0  0  0  0  0  0
   -0.1804    0.7079   -0.1855 C   0  0  1  0  0  0  0  0  0  0  0  0
   -1.1973   -0.0958   -1.0308 C   0  0  2  0  0  0  0  0  0  0  0  0
    0.9393   -0.2722   -0.1868 C   0  0  0  0  0  0  0  0  0  0  0  0
    0.4614   -1.5135   -0.5843 C   0  0  0  0  0  0  0  0  0  0  0  0
    0.1465    2.0661   -0.7883 C   0  0  0  0  0  0  0  0  0  0  0  0
   -2.6301    0.1343   -0.6087 C   0  0  0  0  0  0  0  0  0  0  0  0
    2.2611   -0.1174    0.1945 C   0  0  0  0  0  0  0  0  0  0  0  0
    1.2665   -2.6359   -0.6151 C   0  0  0  0  0  0  0  0  0  0  0  0
    3.0979   -1.2361    0.1577 C   0  0  0  0  0  0  0  0  0  0  0  0
   -3.1892   -0.6360    0.4110 C   0  0  0  0  0  0  0  0  0  0  0  0
    2.6033   -2.4878   -0.2431 C   0  0  0  0  0  0  0  0  0  0  0  0
   -3.3932    1.1177   -1.2382 C   0  0  0  0  0  0  0  0  0  0  0  0
   -4.5113   -0.4228    0.8014 C   0  0  0  0  0  0  0  0  0  0  0  0
   -4.7155    1.3307   -0.8480 C   0  0  0  0  0  0  0  0  0  0  0  0
   -5.2744    0.5605    0.1718 C   0  0  0  0  0  0  0  0  0  0  0  0
    4.4936   -1.1054    0.5484 C   0  0  0  0  0  0  0  0  0  0  0  0
    1.2023    4.0998   -0.2111 C   0  0  0  0  0  0  0  0  0  0  0  0
    1.6974   -4.9435   -0.9957 C   0  0  0  0  0  0  0  0  0  0  0  0
    5.1882    0.0511    0.5921 C   0  0  0  0  0  0  0  0  0  0  0  0
    1.9166    4.7966    0.9072 C   0  0  0  0  0  0  0  0  0  0  0  0
   -4.1975   -2.1634    2.3912 C   0  0  0  0  0  0  0  0  0  0  0  0
    6.6073    0.0289    1.0003 C   0  0  0  0  0  0  0  0  0  0  0  0
   -0.5232    0.8204    0.8521 H   0  0  0  0  0  0  0  0  0  0  0  0
   -1.0965    0.1435   -2.1001 H   0  0  0  0  0  0  0  0  0  0  0  0
   -0.7782    2.5921   -1.0503 H   0  0  0  0  0  0  0  0  0  0  0  0
    0.7621    1.9631   -1.6906 H   0  0  0  0  0  0  0  0  0  0  0  0
    2.6003    0.8538    0.5367 H   0  0  0  0  0  0  0  0  0  0  0  0
   -2.5524   -1.3766    0.8812 H   0  0  0  0  0  0  0  0  0  0  0  0
    3.3029   -3.3186   -0.2473 H   0  0  0  0  0  0  0  0  0  0  0  0
   -2.9708    1.7235   -2.0352 H   0  0  0  0  0  0  0  0  0  0  0  0
   -5.2988    2.0999   -1.3471 H   0  0  0  0  0  0  0  0  0  0  0  0
    4.9973   -2.0336    0.8116 H   0  0  0  0  0  0  0  0  0  0  0  0
    1.1406   -5.8272   -1.3241 H   0  0  0  0  0  0  0  0  0  0  0  0
    2.0690   -5.1541    0.0128 H   0  0  0  0  0  0  0  0  0  0  0  0
    2.5101   -4.7904   -1.7137 H   0  0  0  0  0  0  0  0  0  0  0  0
    4.7764    1.0170    0.3267 H   0  0  0  0  0  0  0  0  0  0  0  0
    1.2514    4.8912    1.7690 H   0  0  0  0  0  0  0  0  0  0  0  0
    2.8172    4.2384    1.1751 H   0  0  0  0  0  0  0  0  0  0  0  0
    2.2111    5.7983    0.5816 H   0  0  0  0  0  0  0  0  0  0  0  0
   -6.9365    1.4948    0.0012 H   0  0  0  0  0  0  0  0  0  0  0  0
   -4.7855   -2.6736    3.1614 H   0  0  0  0  0  0  0  0  0  0  0  0
   -3.3408   -1.7063    2.8982 H   0  0  0  0  0  0  0  0  0  0  0  0
   -3.8963   -2.9268    1.6656 H   0  0  0  0  0  0  0  0  0  0  0  0
    7.0271   -0.9587    1.2540 H   0  0  0  0  0  0  0  0  0  0  0  0
  1  9  1  0  0  0  0
  1 11  1  0  0  0  0
  2 12  1  0  0  0  0
  2 24  1  0  0  0  0
  3 15  1  0  0  0  0
  3 25  1  0  0  0  0
  4 20  1  0  0  0  0
  4 28  1  0  0  0  0
  5 22  1  0  0  0  0
  5 47  1  0  0  0  0
  6 24  2  0  0  0  0
  7 29  2  0  0  0  0
  8  9  1  0  0  0  0
  8 10  1  0  0  0  0
  8 12  1  0  0  0  0
  8 30  1  0  0  0  0
  9 13  1  0  0  0  0
  9 31  1  0  0  0  0
 10 11  2  0  0  0  0
 10 14  1  0  0  0  0
 11 15  1  0  0  0  0
 12 32  1  0  0  0  0
 12 33  1  0  0  0  0
 13 17  2  0  0  0  0
 13 19  1  0  0  0  0
 14 16  2  0  0  0  0
 14 34  1  0  0  0  0
 15 18  2  0  0  0  0
 16 18  1  0  0  0  0
 16 23  1  0  0  0  0
 17 20  1  0  0  0  0
 17 35  1  0  0  0  0
 18 36  1  0  0  0  0
 19 21  2  0  0  0  0
 19 37  1  0  0  0  0
 20 22  2  0  0  0  0
 21 22  1  0  0  0  0
 21 38  1  0  0  0  0
 23 26  2  0  0  0  0
 23 39  1  0  0  0  0
 24 27  1  0  0  0  0
 25 40  1  0  0  0  0
 25 41  1  0  0  0  0
 25 42  1  0  0  0  0
 26 29  1  0  0  0  0
 26 43  1  0  0  0  0
 27 44  1  0  0  0  0
 27 45  1  0  0  0  0
 27 46  1  0  0  0  0
 28 48  1  0  0  0  0
 28 49  1  0  0  0  0
 28 50  1  0  0  0  0
 29 51  1  0  0  0  0
M  END
> <PUBCHEM_COMPOUND_CID>
75202444

> <PUBCHEM_CONFORMER_RMSD>
1

> <PUBCHEM_CONFORMER_DIVERSEORDER>
1
43
53
64
74
59
36
62
41
48
50
56
15
61
6
33
70
21
60
38
46
65
63
45
16
24
52
73
34
68
58
51
20
17
66
39
37
49
42
27
71
57
72
5
30
23
54
40
67
25
13
55
4
35
44
26
9
11
32
47
14
29
3
31
18
7
8
10
12
19
2
69
28
22

> <PUBCHEM_MMFF94_PARTIAL_CHARGES>
38
1 -0.36
10 -0.14
11 0.08
12 0.28
13 -0.14
14 -0.15
15 0.08
16 0.03
17 -0.15
18 -0.15
19 -0.15
2 -0.43
20 0.08
21 -0.15
22 0.08
23 -0.18
24 0.66
25 0.28
26 -0.14
27 0.06
28 0.28
29 0.5
3 -0.36
34 0.15
35 0.15
36 0.15
37 0.15
38 0.15
39 0.15
4 -0.36
43 0.15
47 0.45
5 -0.53
51 0.06
6 -0.57
7 -0.57
8 0.14
9 0.42

> <PUBCHEM_EFFECTIVE_ROTOR_COUNT>
8.6

> <PUBCHEM_PHARMACOPHORE_FEATURES>
9
1 1 acceptor
1 3 acceptor
1 4 acceptor
1 5 donor
1 6 acceptor
1 7 acceptor
5 1 8 9 10 11 rings
6 10 11 14 15 16 18 rings
6 13 17 19 20 21 22 rings

> <PUBCHEM_HEAVY_ATOM_COUNT>
29

> <PUBCHEM_ATOM_DEF_STEREO_COUNT>
0

> <PUBCHEM_ATOM_UDEF_STEREO_COUNT>
2

> <PUBCHEM_BOND_DEF_STEREO_COUNT>
1

> <PUBCHEM_BOND_UDEF_STEREO_COUNT>
0

> <PUBCHEM_ISOTOPIC_ATOM_COUNT>
0

> <PUBCHEM_COMPONENT_COUNT>
1

> <PUBCHEM_CACTVS_TAUTO_COUNT>
3

> <PUBCHEM_CONFORMER_ID>
047B7F8C00000001

> <PUBCHEM_MMFF94_ENERGY>
95.441

> <PUBCHEM_FEATURE_SELFOVERLAP>
45.777

> <PUBCHEM_SHAPE_FINGERPRINT>
10 15 18334290977119600514
10162869 55 18343295982389617885
10675989 125 17179383505362884045
1100329 8 18268986665114374604
11445158 3 18042402602785559702
12236239 1 16988274284188357063
12596602 18 17060333012087432647
12788726 201 17758674451771559883
13140716 1 18269272533663079773
14020679 6 17968650652997614058
140371 6 18336274426991749909
14790565 3 18413385454239413404
14955137 171 18410582785887639484
15081414 286 18271244919789067884
15183329 4 13110966418358240578
15927050 60 17834962245552954972
18365409 1 16700875254627578567
18785283 64 18263370359202899101
19611394 137 18259991496099914754
20600515 1 17822864052444151399
20642791 178 18337955717746372868
20642791 268 18129963208070342699
20739085 24 18411704292064446496
21033648 29 17845073109457357345
21703447 108 17977659806088824010
22224240 67 18343577451753049738
23558518 356 17472702420953110622
23559900 14 17894916273958247373
24180151 248 17985562061409555806
24771293 8 18129930291568067208
5104073 3 18119527643846890770
59554788 170 18055916494144805302
6004065 56 18411408523752813047

> <PUBCHEM_SHAPE_MULTIPOLES>
555.72
12.82
5.45
1.38
1.64
3.01
0.51
0.45
6.85
4.69
-1.27
-1.21
-0.44
2.32

> <PUBCHEM_SHAPE_SELFOVERLAP>
1193.853

> <PUBCHEM_SHAPE_VOLUME>
307.8

> <PUBCHEM_COORDINATE_TYPE>
2
5
10

$$$$
