85350942
  -OEChem-09082007293D

 56 59  0     1  0  0  0  0  0999 V2000
   -6.8439   -0.8782   -0.6771 O   0  0  0  0  0  0  0  0  0  0  0  0
    6.9803    0.3639   -0.8904 O   0  0  0  0  0  0  0  0  0  0  0  0
    5.3294   -1.8314    0.4741 O   0  0  0  0  0  0  0  0  0  0  0  0
   -5.3690    1.9168    0.1243 O   0  0  0  0  0  0  0  0  0  0  0  0
   -0.6625    1.1155   -1.9587 O   0  0  0  0  0  0  0  0  0  0  0  0
    0.5391   -2.2107   -0.7730 O   0  0  0  0  0  0  0  0  0  0  0  0
    0.9515    2.1322    1.2507 O   0  0  0  0  0  0  0  0  0  0  0  0
   -0.9062   -0.8895    2.4057 O   0  0  0  0  0  0  0  0  0  0  0  0
   -5.6257   -0.1930   -0.9856 C   0  0  1  0  0  0  0  0  0  0  0  0
    5.5890    0.0448   -0.9962 C   0  0  1  0  0  0  0  0  0  0  0  0
    4.9625   -0.4590    0.2800 C   0  0  1  0  0  0  0  0  0  0  0  0
   -5.0016    0.5320    0.1805 C   0  0  1  0  0  0  0  0  0  0  0  0
    6.0803    1.4602   -1.1168 C   0  0  0  0  0  0  0  0  0  0  0  0
   -5.7104   -1.6935   -1.0147 C   0  0  0  0  0  0  0  0  0  0  0  0
    3.4785   -0.3114    0.2657 C   0  0  0  0  0  0  0  0  0  0  0  0
   -3.5175    0.3848    0.1958 C   0  0  0  0  0  0  0  0  0  0  0  0
   -0.7418    0.1089    0.2242 C   0  0  0  0  0  0  0  0  0  0  0  0
    0.7027   -0.0350    0.2387 C   0  0  0  0  0  0  0  0  0  0  0  0
    2.6808   -1.3334   -0.2490 C   0  0  0  0  0  0  0  0  0  0  0  0
   -2.7622    0.8198   -0.8932 C   0  0  0  0  0  0  0  0  0  0  0  0
   -2.8850   -0.1882    1.2989 C   0  0  0  0  0  0  0  0  0  0  0  0
    2.8882    0.8489    0.7669 C   0  0  0  0  0  0  0  0  0  0  0  0
    1.2929   -1.1951   -0.2625 C   0  0  0  0  0  0  0  0  0  0  0  0
   -1.3744    0.6818   -0.8791 C   0  0  0  0  0  0  0  0  0  0  0  0
    1.5003    0.9871    0.7534 C   0  0  0  0  0  0  0  0  0  0  0  0
   -1.4971   -0.3261    1.3132 C   0  0  0  0  0  0  0  0  0  0  0  0
    1.2389   -3.3532   -1.2600 C   0  0  0  0  0  0  0  0  0  0  0  0
   -1.4037    1.6860   -3.0346 C   0  0  0  0  0  0  0  0  0  0  0  0
   -1.7665   -1.3011    3.4655 C   0  0  0  0  0  0  0  0  0  0  0  0
    1.8530    3.1157    1.7533 C   0  0  0  0  0  0  0  0  0  0  0  0
    5.2630   -0.4747   -1.8878 H   0  0  0  0  0  0  0  0  0  0  0  0
   -5.5676    0.3339   -1.9292 H   0  0  0  0  0  0  0  0  0  0  0  0
    5.3703    0.0803    1.1445 H   0  0  0  0  0  0  0  0  0  0  0  0
   -5.4300    0.1486    1.1143 H   0  0  0  0  0  0  0  0  0  0  0  0
    6.0862    1.9154   -2.0985 H   0  0  0  0  0  0  0  0  0  0  0  0
    5.9119    2.1456   -0.2966 H   0  0  0  0  0  0  0  0  0  0  0  0
   -5.7194   -2.1848   -1.9788 H   0  0  0  0  0  0  0  0  0  0  0  0
   -5.2502   -2.2613   -0.2169 H   0  0  0  0  0  0  0  0  0  0  0  0
   -3.3050    1.2591   -1.7223 H   0  0  0  0  0  0  0  0  0  0  0  0
    3.1895   -2.2063   -0.6412 H   0  0  0  0  0  0  0  0  0  0  0  0
    3.5624    1.6067    1.1511 H   0  0  0  0  0  0  0  0  0  0  0  0
   -3.5248   -0.5075    2.1142 H   0  0  0  0  0  0  0  0  0  0  0  0
   -5.0454    2.2908   -0.7125 H   0  0  0  0  0  0  0  0  0  0  0  0
    6.3005   -1.8686    0.5157 H   0  0  0  0  0  0  0  0  0  0  0  0
   -2.0776    0.9556   -3.4956 H   0  0  0  0  0  0  0  0  0  0  0  0
    1.8738   -3.1052   -2.1175 H   0  0  0  0  0  0  0  0  0  0  0  0
   -1.9199    2.6031   -2.7305 H   0  0  0  0  0  0  0  0  0  0  0  0
   -0.6797    1.9741   -3.8042 H   0  0  0  0  0  0  0  0  0  0  0  0
    1.7881   -3.8642   -0.4617 H   0  0  0  0  0  0  0  0  0  0  0  0
    0.4844   -4.0594   -1.6227 H   0  0  0  0  0  0  0  0  0  0  0  0
    2.4137    2.7473    2.6193 H   0  0  0  0  0  0  0  0  0  0  0  0
   -2.2921   -0.4514    3.9146 H   0  0  0  0  0  0  0  0  0  0  0  0
   -2.4474   -2.0985    3.1488 H   0  0  0  0  0  0  0  0  0  0  0  0
    2.5050    3.5088    0.9656 H   0  0  0  0  0  0  0  0  0  0  0  0
    1.2457    3.9558    2.1066 H   0  0  0  0  0  0  0  0  0  0  0  0
   -1.1290   -1.7252    4.2485 H   0  0  0  0  0  0  0  0  0  0  0  0
  1  9  1  0  0  0  0
  1 14  1  0  0  0  0
  2 10  1  0  0  0  0
  2 13  1  0  0  0  0
  3 11  1  0  0  0  0
  3 44  1  0  0  0  0
  4 12  1  0  0  0  0
  4 43  1  0  0  0  0
  5 24  1  0  0  0  0
  5 28  1  0  0  0  0
  6 23  1  0  0  0  0
  6 27  1  0  0  0  0
  7 25  1  0  0  0  0
  7 30  1  0  0  0  0
  8 26  1  0  0  0  0
  8 29  1  0  0  0  0
  9 12  1  0  0  0  0
  9 14  1  0  0  0  0
  9 32  1  0  0  0  0
 10 11  1  0  0  0  0
 10 13  1  0  0  0  0
 10 31  1  0  0  0  0
 11 15  1  0  0  0  0
 11 33  1  0  0  0  0
 12 16  1  0  0  0  0
 12 34  1  0  0  0  0
 13 35  1  0  0  0  0
 13 36  1  0  0  0  0
 14 37  1  0  0  0  0
 14 38  1  0  0  0  0
 15 19  2  0  0  0  0
 15 22  1  0  0  0  0
 16 20  2  0  0  0  0
 16 21  1  0  0  0  0
 17 18  1  0  0  0  0
 17 24  2  0  0  0  0
 17 26  1  0  0  0  0
 18 23  2  0  0  0  0
 18 25  1  0  0  0  0
 19 23  1  0  0  0  0
 19 40  1  0  0  0  0
 20 24  1  0  0  0  0
 20 39  1  0  0  0  0
 21 26  2  0  0  0  0
 21 42  1  0  0  0  0
 22 25  2  0  0  0  0
 22 41  1  0  0  0  0
 27 46  1  0  0  0  0
 27 49  1  0  0  0  0
 27 50  1  0  0  0  0
 28 45  1  0  0  0  0
 28 47  1  0  0  0  0
 28 48  1  0  0  0  0
 29 52  1  0  0  0  0
 29 53  1  0  0  0  0
 29 56  1  0  0  0  0
 30 51  1  0  0  0  0
 30 54  1  0  0  0  0
 30 55  1  0  0  0  0
M  END
> <PUBCHEM_COMPOUND_CID>
85350942

> <PUBCHEM_CONFORMER_RMSD>
1

> <PUBCHEM_CONFORMER_DIVERSEORDER>
1
3
5
6
4
2

> <PUBCHEM_MMFF94_PARTIAL_CHARGES>
40
1 -0.3
10 -0.05
11 0.52
12 0.52
13 -0.05
14 -0.05
15 -0.14
16 -0.14
19 -0.15
2 -0.3
20 -0.15
21 -0.15
22 -0.15
23 0.08
24 0.08
25 0.08
26 0.08
27 0.28
28 0.28
29 0.28
3 -0.68
30 0.28
31 0.1
32 0.1
35 0.1
36 0.1
37 0.1
38 0.1
39 0.15
4 -0.68
40 0.15
41 0.15
42 0.15
43 0.4
44 0.4
5 -0.36
6 -0.36
7 -0.36
8 -0.36
9 -0.05

> <PUBCHEM_EFFECTIVE_ROTOR_COUNT>
10.2

> <PUBCHEM_PHARMACOPHORE_FEATURES>
12
1 1 acceptor
1 2 acceptor
1 3 acceptor
1 3 donor
1 4 acceptor
1 4 donor
1 5 acceptor
1 6 acceptor
1 7 acceptor
1 8 acceptor
6 15 18 19 22 23 25 rings
6 16 17 20 21 24 26 rings

> <PUBCHEM_HEAVY_ATOM_COUNT>
30

> <PUBCHEM_ATOM_DEF_STEREO_COUNT>
0

> <PUBCHEM_ATOM_UDEF_STEREO_COUNT>
4

> <PUBCHEM_BOND_DEF_STEREO_COUNT>
0

> <PUBCHEM_BOND_UDEF_STEREO_COUNT>
0

> <PUBCHEM_ISOTOPIC_ATOM_COUNT>
0

> <PUBCHEM_COMPONENT_COUNT>
1

> <PUBCHEM_CACTVS_TAUTO_COUNT>
1

> <PUBCHEM_CONFORMER_ID>
05165A1E00000001

> <PUBCHEM_MMFF94_ENERGY>
125.6762

> <PUBCHEM_FEATURE_SELFOVERLAP>
60.905

> <PUBCHEM_SHAPE_FINGERPRINT>
10366900 7 18333731325189236233
10906281 52 17895777117836104613
12011746 2 18408605880918102628
12166972 35 17203609319402654473
12236239 1 16845573114645595793
13533116 47 12031795747538666132
13583140 156 17988349400627183941
13782708 43 18261386715593276843
13911987 19 18342189881738606380
14955137 171 15482383257370024571
15849732 13 16845853498922561996
1813 80 17561372760109855048
18681886 176 17774995825612365538
20511986 3 14562815511925160350
20600515 1 17168444683110215725
21150785 3 18059578027016049812
21267235 1 15913332407058933187
23402539 116 17603866689467697767
23522609 53 18266764431386745176
23559900 14 17749391524169537337
23569917 315 17917437497563838310
23576562 1 18194126446023265972
3009799 131 15936124171112473455
350125 39 18271239542368693958
484989 97 18057043729628396135

> <PUBCHEM_SHAPE_MULTIPOLES>
570.43
13.88
2.44
2.26
1.45
0.35
-0.77
0.44
5.02
1.02
0.12
-1.24
-0.23
0.45

> <PUBCHEM_SHAPE_SELFOVERLAP>
1222.452

> <PUBCHEM_SHAPE_VOLUME>
319.9

> <PUBCHEM_COORDINATE_TYPE>
2
5
10

$$$$
