618244
  -OEChem-09202005583D

 50 52  0     0  0  0  0  0  0999 V2000
   -3.3122   -0.7900    2.6326 O   0  0  0  0  0  0  0  0  0  0  0  0
   -0.8368    0.1757    2.2363 O   0  0  0  0  0  0  0  0  0  0  0  0
    0.3453    0.0552    0.0728 C   0  0  0  0  0  0  0  0  0  0  0  0
   -0.8669   -0.2040    1.0618 C   0  0  0  0  0  0  0  0  0  0  0  0
   -2.0632   -1.0302    0.5639 C   0  0  0  0  0  0  0  0  0  0  0  0
   -3.4159   -0.6739    1.2120 C   0  0  0  0  0  0  0  0  0  0  0  0
    0.5132   -1.1246   -0.9484 C   0  0  0  0  0  0  0  0  0  0  0  0
   -0.0993    1.3908   -0.6142 C   0  0  0  0  0  0  0  0  0  0  0  0
    1.7191    0.0979    0.8089 C   0  0  0  0  0  0  0  0  0  0  0  0
   -3.7413    0.7958    0.9230 C   0  0  0  0  0  0  0  0  0  0  0  0
   -4.5683   -1.5542    0.7262 C   0  0  0  0  0  0  0  0  0  0  0  0
    0.8838   -0.8007   -2.2138 C   0  0  0  0  0  0  0  0  0  0  0  0
   -0.8580    1.2907   -1.7373 C   0  0  0  0  0  0  0  0  0  0  0  0
    2.6927    0.8902    0.2796 C   0  0  0  0  0  0  0  0  0  0  0  0
    0.2759   -2.3800   -0.4892 C   0  0  0  0  0  0  0  0  0  0  0  0
    0.3056    2.5528   -0.0371 C   0  0  0  0  0  0  0  0  0  0  0  0
    1.8550   -0.6594    1.9331 C   0  0  0  0  0  0  0  0  0  0  0  0
    1.0334   -1.8492   -3.1214 C   0  0  0  0  0  0  0  0  0  0  0  0
   -1.2542    2.4800   -2.3491 C   0  0  0  0  0  0  0  0  0  0  0  0
    3.9218    0.9287    0.9382 C   0  0  0  0  0  0  0  0  0  0  0  0
    0.4257   -3.4285   -1.3970 C   0  0  0  0  0  0  0  0  0  0  0  0
   -0.0908    3.7421   -0.6490 C   0  0  0  0  0  0  0  0  0  0  0  0
    3.0840   -0.6208    2.5917 C   0  0  0  0  0  0  0  0  0  0  0  0
    0.8044   -3.1631   -2.7130 C   0  0  0  0  0  0  0  0  0  0  0  0
   -0.8707    3.7056   -1.8049 C   0  0  0  0  0  0  0  0  0  0  0  0
    4.1175    0.1732    2.0942 C   0  0  0  0  0  0  0  0  0  0  0  0
   -2.1656   -0.9466   -0.5204 H   0  0  0  0  0  0  0  0  0  0  0  0
   -1.8752   -2.0749    0.8254 H   0  0  0  0  0  0  0  0  0  0  0  0
   -3.0056    1.4755    1.3656 H   0  0  0  0  0  0  0  0  0  0  0  0
   -3.7940    0.9918   -0.1531 H   0  0  0  0  0  0  0  0  0  0  0  0
   -4.7056    1.0740    1.3649 H   0  0  0  0  0  0  0  0  0  0  0  0
   -4.3791   -2.6041    0.9763 H   0  0  0  0  0  0  0  0  0  0  0  0
   -5.5098   -1.2832    1.2171 H   0  0  0  0  0  0  0  0  0  0  0  0
   -4.7046   -1.4759   -0.3572 H   0  0  0  0  0  0  0  0  0  0  0  0
    1.1749    0.1865   -2.5520 H   0  0  0  0  0  0  0  0  0  0  0  0
   -1.2617    0.3751   -2.1505 H   0  0  0  0  0  0  0  0  0  0  0  0
    2.5954    1.4446   -0.6466 H   0  0  0  0  0  0  0  0  0  0  0  0
    0.0715   -2.6303    0.5435 H   0  0  0  0  0  0  0  0  0  0  0  0
    0.8541    2.6190    0.8948 H   0  0  0  0  0  0  0  0  0  0  0  0
    1.0897   -1.3161    2.3283 H   0  0  0  0  0  0  0  0  0  0  0  0
   -4.1722   -0.5532    3.0201 H   0  0  0  0  0  0  0  0  0  0  0  0
    1.3527   -1.6458   -4.1394 H   0  0  0  0  0  0  0  0  0  0  0  0
   -1.8800    2.4528   -3.2365 H   0  0  0  0  0  0  0  0  0  0  0  0
    4.7310    1.5361    0.5434 H   0  0  0  0  0  0  0  0  0  0  0  0
    0.2696   -4.4536   -1.0737 H   0  0  0  0  0  0  0  0  0  0  0  0
    0.1936    4.6969   -0.2162 H   0  0  0  0  0  0  0  0  0  0  0  0
    3.2401   -1.2163    3.4867 H   0  0  0  0  0  0  0  0  0  0  0  0
    0.9315   -3.9805   -3.4168 H   0  0  0  0  0  0  0  0  0  0  0  0
   -1.1866    4.6317   -2.2761 H   0  0  0  0  0  0  0  0  0  0  0  0
    5.0760    0.1991    2.6041 H   0  0  0  0  0  0  0  0  0  0  0  0
  1  6  1  0  0  0  0
  1 41  1  0  0  0  0
  2  4  2  0  0  0  0
  3  4  1  0  0  0  0
  3  7  1  0  0  0  0
  3  8  1  0  0  0  0
  3  9  1  0  0  0  0
  4  5  1  0  0  0  0
  5  6  1  0  0  0  0
  5 27  1  0  0  0  0
  5 28  1  0  0  0  0
  6 10  1  0  0  0  0
  6 11  1  0  0  0  0
  7 12  2  0  0  0  0
  7 15  1  0  0  0  0
  8 13  2  0  0  0  0
  8 16  1  0  0  0  0
  9 14  2  0  0  0  0
  9 17  1  0  0  0  0
 10 29  1  0  0  0  0
 10 30  1  0  0  0  0
 10 31  1  0  0  0  0
 11 32  1  0  0  0  0
 11 33  1  0  0  0  0
 11 34  1  0  0  0  0
 12 18  1  0  0  0  0
 12 35  1  0  0  0  0
 13 19  1  0  0  0  0
 13 36  1  0  0  0  0
 14 20  1  0  0  0  0
 14 37  1  0  0  0  0
 15 21  2  0  0  0  0
 15 38  1  0  0  0  0
 16 22  2  0  0  0  0
 16 39  1  0  0  0  0
 17 23  2  0  0  0  0
 17 40  1  0  0  0  0
 18 24  2  0  0  0  0
 18 42  1  0  0  0  0
 19 25  2  0  0  0  0
 19 43  1  0  0  0  0
 20 26  2  0  0  0  0
 20 44  1  0  0  0  0
 21 24  1  0  0  0  0
 21 45  1  0  0  0  0
 22 25  1  0  0  0  0
 22 46  1  0  0  0  0
 23 26  1  0  0  0  0
 23 47  1  0  0  0  0
 24 48  1  0  0  0  0
 25 49  1  0  0  0  0
 26 50  1  0  0  0  0
M  END
> <PUBCHEM_COMPOUND_CID>
618244

> <PUBCHEM_CONFORMER_RMSD>
0.8

> <PUBCHEM_CONFORMER_DIVERSEORDER>
1
8
9
3
4
7
2
5
6
10

> <PUBCHEM_MMFF94_PARTIAL_CHARGES>
40
1 -0.68
12 -0.15
13 -0.15
14 -0.15
15 -0.15
16 -0.15
17 -0.15
18 -0.15
19 -0.15
2 -0.57
20 -0.15
21 -0.15
22 -0.15
23 -0.15
24 -0.15
25 -0.15
26 -0.15
3 0.49
35 0.15
36 0.15
37 0.15
38 0.15
39 0.15
4 0.45
40 0.15
41 0.4
42 0.15
43 0.15
44 0.15
45 0.15
46 0.15
47 0.15
48 0.15
49 0.15
5 0.06
50 0.15
6 0.28
7 -0.14
8 -0.14
9 -0.14

> <PUBCHEM_EFFECTIVE_ROTOR_COUNT>
6

> <PUBCHEM_PHARMACOPHORE_FEATURES>
7
1 1 acceptor
1 1 donor
1 2 acceptor
3 6 10 11 hydrophobe
6 7 12 15 18 21 24 rings
6 8 13 16 19 22 25 rings
6 9 14 17 20 23 26 rings

> <PUBCHEM_HEAVY_ATOM_COUNT>
26

> <PUBCHEM_ATOM_DEF_STEREO_COUNT>
0

> <PUBCHEM_ATOM_UDEF_STEREO_COUNT>
0

> <PUBCHEM_BOND_DEF_STEREO_COUNT>
0

> <PUBCHEM_BOND_UDEF_STEREO_COUNT>
0

> <PUBCHEM_ISOTOPIC_ATOM_COUNT>
0

> <PUBCHEM_COMPONENT_COUNT>
1

> <PUBCHEM_CACTVS_TAUTO_COUNT>
2

> <PUBCHEM_CONFORMER_ID>
00096F0400000001

> <PUBCHEM_MMFF94_ENERGY>
119.9925

> <PUBCHEM_FEATURE_SELFOVERLAP>
35.529

> <PUBCHEM_SHAPE_FINGERPRINT>
10906281 52 18263071133554005821
11443803 9 17044334275852136761
11578080 2 17838644174459185792
12293681 25 18122335779807421103
13009979 54 17192051463973179190
13134695 92 17677325164408930009
13149001 5 15803628750372255966
13583140 156 17389667715488662715
14022347 108 17608126128984162153
14817 1 17823974533086045990
14863182 85 17702121337854476511
14943834 7 17403170894650020956
15238133 3 16878804682040049793
15420108 30 18124604334193984869
15775530 1 17980480057639600964
16945 1 18198624543348792354
17980427 23 18196933486313129843
17980427 26 16702021937817803088
18915476 22 17556844841601733564
20600515 1 17823443602092749776
20602899 9 17056069101625519006
20691752 17 18191046554665697563
21330990 113 18128559122910218020
22149856 69 15182262508931777325
229495 10 18268686390791555242
23419403 2 17841436920897591838
23598288 3 17972006242231769912
23728640 28 17620419802896255386
25222932 49 16171182499795457099
266924 78 16843019919865543997
298252 57 17334155310216055820
404807 78 17409596269827784407
469060 322 17980441789412688151
5845 1 13950678102708345161
59755656 520 17059764624720739066
9925002 15 17552345996745804553
9981440 41 17479407367650892792

> <PUBCHEM_SHAPE_MULTIPOLES>
523.33
5.4
3.93
3.23
0.93
1.2
0.75
-0.51
-5.82
0.78
3.97
-0.23
-1.23
1.84

> <PUBCHEM_SHAPE_SELFOVERLAP>
1144.99

> <PUBCHEM_SHAPE_VOLUME>
282.8

> <PUBCHEM_COORDINATE_TYPE>
2
5
10

$$$$
