91747903
  -OEChem-09202006023D

 39 40  0     1  0  0  0  0  0999 V2000
   -1.6027    0.6683   -0.2980 C   0  0  2  0  0  0  0  0  0  0  0  0
   -0.8383   -0.6701   -0.4237 C   0  0  1  0  0  0  0  0  0  0  0  0
   -0.7802    1.9007    0.1208 C   0  0  1  0  0  0  0  0  0  0  0  0
   -2.7778    0.3735    0.6539 C   0  0  0  0  0  0  0  0  0  0  0  0
    0.3633   -0.8256    0.5194 C   0  0  0  0  0  0  0  0  0  0  0  0
   -1.9291   -1.6691   -0.1156 C   0  0  0  0  0  0  0  0  0  0  0  0
    0.4762    2.0794   -0.7494 C   0  0  0  0  0  0  0  0  0  0  0  0
    1.6027   -0.0747    0.0901 C   0  0  0  0  0  0  0  0  0  0  0  0
   -2.9819   -1.0914    0.4747 C   0  0  0  0  0  0  0  0  0  0  0  0
    1.6177    1.1374   -0.4926 C   0  0  0  0  0  0  0  0  0  0  0  0
   -1.6409    3.1706    0.0351 C   0  0  0  0  0  0  0  0  0  0  0  0
    2.8976   -0.8043    0.3405 C   0  0  0  0  0  0  0  0  0  0  0  0
   -1.7963   -3.1103   -0.4604 C   0  0  0  0  0  0  0  0  0  0  0  0
    3.6037   -1.0792   -0.9800 C   0  0  0  0  0  0  0  0  0  0  0  0
    3.7860   -0.0052    1.2853 C   0  0  0  0  0  0  0  0  0  0  0  0
   -2.0358    0.8778   -1.2901 H   0  0  0  0  0  0  0  0  0  0  0  0
   -0.5146   -0.8014   -1.4651 H   0  0  0  0  0  0  0  0  0  0  0  0
   -0.4719    1.7969    1.1697 H   0  0  0  0  0  0  0  0  0  0  0  0
   -3.6703    0.9351    0.3611 H   0  0  0  0  0  0  0  0  0  0  0  0
   -2.5419    0.5962    1.6998 H   0  0  0  0  0  0  0  0  0  0  0  0
    0.6068   -1.8948    0.5582 H   0  0  0  0  0  0  0  0  0  0  0  0
    0.1072   -0.5428    1.5484 H   0  0  0  0  0  0  0  0  0  0  0  0
    0.8716    3.0888   -0.5712 H   0  0  0  0  0  0  0  0  0  0  0  0
    0.2157    2.0392   -1.8143 H   0  0  0  0  0  0  0  0  0  0  0  0
   -3.8704   -1.6141    0.7987 H   0  0  0  0  0  0  0  0  0  0  0  0
    2.5759    1.5535   -0.8002 H   0  0  0  0  0  0  0  0  0  0  0  0
   -1.9978    3.3400   -0.9864 H   0  0  0  0  0  0  0  0  0  0  0  0
   -1.0660    4.0510    0.3421 H   0  0  0  0  0  0  0  0  0  0  0  0
   -2.5118    3.1076    0.6950 H   0  0  0  0  0  0  0  0  0  0  0  0
    2.7039   -1.7712    0.8210 H   0  0  0  0  0  0  0  0  0  0  0  0
   -1.6058   -3.2283   -1.5317 H   0  0  0  0  0  0  0  0  0  0  0  0
   -2.7087   -3.6663   -0.2205 H   0  0  0  0  0  0  0  0  0  0  0  0
   -0.9716   -3.5697    0.0920 H   0  0  0  0  0  0  0  0  0  0  0  0
    3.2627    0.2258    2.2201 H   0  0  0  0  0  0  0  0  0  0  0  0
    4.4850   -1.7090   -0.8123 H   0  0  0  0  0  0  0  0  0  0  0  0
    2.9485   -1.6144   -1.6769 H   0  0  0  0  0  0  0  0  0  0  0  0
    4.6798   -0.5841    1.5446 H   0  0  0  0  0  0  0  0  0  0  0  0
    4.1300    0.9380    0.8474 H   0  0  0  0  0  0  0  0  0  0  0  0
    3.9533   -0.1667   -1.4748 H   0  0  0  0  0  0  0  0  0  0  0  0
  1  2  1  0  0  0  0
  1  3  1  0  0  0  0
  1  4  1  0  0  0  0
  1 16  1  0  0  0  0
  2  5  1  0  0  0  0
  2  6  1  0  0  0  0
  2 17  1  0  0  0  0
  3  7  1  0  0  0  0
  3 11  1  0  0  0  0
  3 18  1  0  0  0  0
  4  9  1  0  0  0  0
  4 19  1  0  0  0  0
  4 20  1  0  0  0  0
  5  8  1  0  0  0  0
  5 21  1  0  0  0  0
  5 22  1  0  0  0  0
  6  9  2  0  0  0  0
  6 13  1  0  0  0  0
  7 10  1  0  0  0  0
  7 23  1  0  0  0  0
  7 24  1  0  0  0  0
  8 10  2  0  0  0  0
  8 12  1  0  0  0  0
  9 25  1  0  0  0  0
 10 26  1  0  0  0  0
 11 27  1  0  0  0  0
 11 28  1  0  0  0  0
 11 29  1  0  0  0  0
 12 14  1  0  0  0  0
 12 15  1  0  0  0  0
 12 30  1  0  0  0  0
 13 31  1  0  0  0  0
 13 32  1  0  0  0  0
 13 33  1  0  0  0  0
 14 35  1  0  0  0  0
 14 36  1  0  0  0  0
 14 39  1  0  0  0  0
 15 34  1  0  0  0  0
 15 37  1  0  0  0  0
 15 38  1  0  0  0  0
M  END
> <PUBCHEM_COMPOUND_CID>
91747903

> <PUBCHEM_CONFORMER_RMSD>
0.6

> <PUBCHEM_CONFORMER_DIVERSEORDER>
1
22
2
19
14
16
9
3
13
15
17
18
6
21
12
7
10
8
20
11
5
4

> <PUBCHEM_MMFF94_PARTIAL_CHARGES>
12
10 -0.29
12 0.14
13 0.14
2 0.14
25 0.15
26 0.15
4 0.14
5 0.14
6 -0.28
7 0.14
8 -0.28
9 -0.29

> <PUBCHEM_EFFECTIVE_ROTOR_COUNT>
1.8

> <PUBCHEM_PHARMACOPHORE_FEATURES>
3
3 12 14 15 hydrophobe
5 1 2 4 6 9 rings
7 1 2 3 5 7 8 10 rings

> <PUBCHEM_HEAVY_ATOM_COUNT>
15

> <PUBCHEM_ATOM_DEF_STEREO_COUNT>
0

> <PUBCHEM_ATOM_UDEF_STEREO_COUNT>
3

> <PUBCHEM_BOND_DEF_STEREO_COUNT>
0

> <PUBCHEM_BOND_UDEF_STEREO_COUNT>
0

> <PUBCHEM_ISOTOPIC_ATOM_COUNT>
0

> <PUBCHEM_COMPONENT_COUNT>
1

> <PUBCHEM_CACTVS_TAUTO_COUNT>
1

> <PUBCHEM_CONFORMER_ID>
0577F63F00000001

> <PUBCHEM_MMFF94_ENERGY>
31.9604

> <PUBCHEM_FEATURE_SELFOVERLAP>
15.253

> <PUBCHEM_SHAPE_FINGERPRINT>
10967382 1 18049727617826782703
11132069 177 18412543210519048170
11578080 2 17387104603608175108
12382932 28 18341610459852349322
12553582 1 18337960111313339254
13140716 1 18336828713906074955
13380535 76 17903915552855574325
14178342 30 18336533942080140922
14817 1 18340779147457567565
15001771 113 18264494047222261013
15375462 189 18045794634680013017
16752209 62 18336262323805168621
16945 1 18410293583932421292
17804303 29 18271251538555112878
19049666 15 17914896435690583346
19868273 325 18410288155194122311
20510252 161 18200591380509156401
20559304 39 17907300201569248111
20645477 70 17402605750380710415
20871998 184 18341331097989024773
21452121 199 18049143764246348506
21501502 16 18120939665879607575
21524375 3 17688301292409687425
21650355 55 18339065094676345698
22112679 90 18268718383881272485
22445834 79 17906465672628810147
22802520 49 18055919788405482086
2334 1 18120657099975890007
23388829 49 18261951968018186924
23402539 116 18272920631850821055
23419403 2 17327405644345545268
23463225 33 18337396053337087007
23552423 10 17546170066034622055
23557571 272 18342736347359606106
23559900 14 18054509102867346518
23598294 1 18191021214431926016
257057 1 18194670699540500101
2748010 2 18338229496067563101
34934 24 18194965364319819221
427121 178 16338124180897285577
53812654 25 18340486780527975077
5902787 121 18116425045477250514
6049 1 18060137605462237904
6338986 31 18124863805768109295
6992083 37 18269850838082555251
7364860 26 17836085945708054260
81228 2 18408601435537358584
90316 7 18408600353332389041

> <PUBCHEM_SHAPE_MULTIPOLES>
308.69
5.38
3.05
0.95
4.23
0.72
0.07
-1.99
0.92
-2.44
-0.54
0.55
-0.05
-0.08

> <PUBCHEM_SHAPE_SELFOVERLAP>
629.843

> <PUBCHEM_SHAPE_VOLUME>
176.2

> <PUBCHEM_COORDINATE_TYPE>
2
5
10

$$$$
