21450
  -OEChem-09202005203D

 20 20  0     0  0  0  0  0  0999 V2000
   -2.2522    1.4108    0.4065 O   0  0  0  0  0  0  0  0  0  0  0  0
   -2.5095   -0.8008   -0.2460 N   0  0  0  0  0  0  0  0  0  0  0  0
    3.8747   -0.2869   -0.0731 N   0  0  0  0  0  0  0  0  0  0  0  0
   -3.8887   -0.7195   -0.2456 N   0  0  0  0  0  0  0  0  0  0  0  0
   -0.2994    0.1624    0.0522 C   0  0  0  0  0  0  0  0  0  0  0  0
    0.5144    1.2703   -0.1838 C   0  0  0  0  0  0  0  0  0  0  0  0
    0.2728   -1.0948    0.2465 C   0  0  0  0  0  0  0  0  0  0  0  0
    2.4731   -0.1361   -0.0311 C   0  0  0  0  0  0  0  0  0  0  0  0
    1.9006    1.1210   -0.2254 C   0  0  0  0  0  0  0  0  0  0  0  0
    1.6591   -1.2442    0.2049 C   0  0  0  0  0  0  0  0  0  0  0  0
   -1.7447    0.3178    0.0948 C   0  0  0  0  0  0  0  0  0  0  0  0
    0.0883    2.2576   -0.3423 H   0  0  0  0  0  0  0  0  0  0  0  0
   -0.3225   -1.9774    0.4614 H   0  0  0  0  0  0  0  0  0  0  0  0
    2.5243    1.9917   -0.4112 H   0  0  0  0  0  0  0  0  0  0  0  0
    2.0938   -2.2277    0.3641 H   0  0  0  0  0  0  0  0  0  0  0  0
   -2.1035   -1.6771   -0.5569 H   0  0  0  0  0  0  0  0  0  0  0  0
    4.2902   -1.1980    0.0681 H   0  0  0  0  0  0  0  0  0  0  0  0
    4.4653    0.5161   -0.2438 H   0  0  0  0  0  0  0  0  0  0  0  0
   -4.1988   -0.9545   -1.1876 H   0  0  0  0  0  0  0  0  0  0  0  0
   -4.2281   -1.4679    0.3572 H   0  0  0  0  0  0  0  0  0  0  0  0
  1 11  2  0  0  0  0
  2  4  1  0  0  0  0
  2 11  1  0  0  0  0
  2 16  1  0  0  0  0
  3  8  1  0  0  0  0
  3 17  1  0  0  0  0
  3 18  1  0  0  0  0
  4 19  1  0  0  0  0
  4 20  1  0  0  0  0
  5  6  2  0  0  0  0
  5  7  1  0  0  0  0
  5 11  1  0  0  0  0
  6  9  1  0  0  0  0
  6 12  1  0  0  0  0
  7 10  2  0  0  0  0
  7 13  1  0  0  0  0
  8  9  2  0  0  0  0
  8 10  1  0  0  0  0
  9 14  1  0  0  0  0
 10 15  1  0  0  0  0
M  END
> <PUBCHEM_COMPOUND_CID>
21450

> <PUBCHEM_CONFORMER_RMSD>
0.4

> <PUBCHEM_CONFORMER_DIVERSEORDER>
1
3
2

> <PUBCHEM_MMFF94_PARTIAL_CHARGES>
20
1 -0.57
10 -0.15
11 0.54
12 0.15
13 0.15
14 0.15
15 0.15
16 0.37
17 0.4
18 0.4
19 0.36
2 -0.42
20 0.36
3 -0.9
4 -0.73
5 0.09
6 -0.15
7 -0.15
8 0.1
9 -0.15

> <PUBCHEM_EFFECTIVE_ROTOR_COUNT>
2

> <PUBCHEM_PHARMACOPHORE_FEATURES>
6
1 1 acceptor
1 2 donor
1 3 cation
1 3 donor
1 4 donor
6 5 6 7 8 9 10 rings

> <PUBCHEM_HEAVY_ATOM_COUNT>
11

> <PUBCHEM_ATOM_DEF_STEREO_COUNT>
0

> <PUBCHEM_ATOM_UDEF_STEREO_COUNT>
0

> <PUBCHEM_BOND_DEF_STEREO_COUNT>
0

> <PUBCHEM_BOND_UDEF_STEREO_COUNT>
0

> <PUBCHEM_ISOTOPIC_ATOM_COUNT>
0

> <PUBCHEM_COMPONENT_COUNT>
1

> <PUBCHEM_CACTVS_TAUTO_COUNT>
3

> <PUBCHEM_CONFORMER_ID>
000053CA00000001

> <PUBCHEM_MMFF94_ENERGY>
38.8593

> <PUBCHEM_FEATURE_SELFOVERLAP>
31.951

> <PUBCHEM_SHAPE_FINGERPRINT>
10219947 1 17603588534384441628
11062470 55 13695584455564245215
12032990 46 18411143519685655470
12897270 3 18408320012369215751
14128692 85 18342457066567845189
14325111 11 18410857655130925552
14993402 34 18259990392124293238
16945 1 18335148608678275194
20201158 50 18261111880709689915
21040471 1 18336270153720414144
21293036 1 18260269668009169982
23402655 69 18336536124102738981
23552423 10 18334298630160192111
2748010 2 17903354801951418724
5084963 1 18410011052430854480
528886 8 18337105679182883872

> <PUBCHEM_SHAPE_MULTIPOLES>
205.56
5.29
1.4
0.62
1.57
0.15
-0.01
-0.92
0.39
0.01
-0.04
0.02
0.01
-0.29

> <PUBCHEM_SHAPE_SELFOVERLAP>
428.244

> <PUBCHEM_SHAPE_VOLUME>
117.3

> <PUBCHEM_COORDINATE_TYPE>
2
5
10

$$$$
