21407
  -OEChem-09202005043D

 18 17  0     0  0  0  0  0  0999 V2000
    1.3534   -1.3669    0.1369 O   0  0  0  0  0  0  0  0  0  0  0  0
    0.4267    0.7632    0.2571 N   0  0  0  0  0  0  0  0  0  0  0  0
   -0.9125    0.3662    0.6752 C   0  0  0  0  0  0  0  0  0  0  0  0
   -1.7987    0.1255   -0.5443 C   0  0  0  0  0  0  0  0  0  0  0  0
   -3.2091   -0.2698   -0.1346 C   0  0  0  0  0  0  0  0  0  0  0  0
    1.4350   -0.1463    0.0272 C   0  0  0  0  0  0  0  0  0  0  0  0
    2.7052    0.5280   -0.4174 C   0  0  0  0  0  0  0  0  0  0  0  0
   -0.8426   -0.5386    1.2887 H   0  0  0  0  0  0  0  0  0  0  0  0
   -1.3116    1.1771    1.2929 H   0  0  0  0  0  0  0  0  0  0  0  0
   -1.8390    1.0316   -1.1608 H   0  0  0  0  0  0  0  0  0  0  0  0
   -1.3685   -0.6642   -1.1718 H   0  0  0  0  0  0  0  0  0  0  0  0
    0.6037    1.7540    0.1189 H   0  0  0  0  0  0  0  0  0  0  0  0
   -3.2020   -1.1928    0.4537 H   0  0  0  0  0  0  0  0  0  0  0  0
   -3.6781    0.5169    0.4649 H   0  0  0  0  0  0  0  0  0  0  0  0
   -3.8286   -0.4364   -1.0214 H   0  0  0  0  0  0  0  0  0  0  0  0
    3.5223   -0.1988   -0.4319 H   0  0  0  0  0  0  0  0  0  0  0  0
    2.5707    0.9362   -1.4229 H   0  0  0  0  0  0  0  0  0  0  0  0
    2.9673    1.3352    0.2726 H   0  0  0  0  0  0  0  0  0  0  0  0
  1  6  2  0  0  0  0
  2  3  1  0  0  0  0
  2  6  1  0  0  0  0
  2 12  1  0  0  0  0
  3  4  1  0  0  0  0
  3  8  1  0  0  0  0
  3  9  1  0  0  0  0
  4  5  1  0  0  0  0
  4 10  1  0  0  0  0
  4 11  1  0  0  0  0
  5 13  1  0  0  0  0
  5 14  1  0  0  0  0
  5 15  1  0  0  0  0
  6  7  1  0  0  0  0
  7 16  1  0  0  0  0
  7 17  1  0  0  0  0
  7 18  1  0  0  0  0
M  END
> <PUBCHEM_COMPOUND_CID>
21407

> <PUBCHEM_CONFORMER_RMSD>
0.4

> <PUBCHEM_CONFORMER_DIVERSEORDER>
1
6
8
9
5
2
3
4
7

> <PUBCHEM_MMFF94_PARTIAL_CHARGES>
6
1 -0.57
12 0.37
2 -0.73
3 0.3
6 0.57
7 0.06

> <PUBCHEM_EFFECTIVE_ROTOR_COUNT>
3

> <PUBCHEM_PHARMACOPHORE_FEATURES>
3
1 1 acceptor
1 2 donor
1 5 hydrophobe

> <PUBCHEM_HEAVY_ATOM_COUNT>
7

> <PUBCHEM_ATOM_DEF_STEREO_COUNT>
0

> <PUBCHEM_ATOM_UDEF_STEREO_COUNT>
0

> <PUBCHEM_BOND_DEF_STEREO_COUNT>
0

> <PUBCHEM_BOND_UDEF_STEREO_COUNT>
0

> <PUBCHEM_ISOTOPIC_ATOM_COUNT>
0

> <PUBCHEM_COMPONENT_COUNT>
1

> <PUBCHEM_CACTVS_TAUTO_COUNT>
2

> <PUBCHEM_CONFORMER_ID>
0000539F00000001

> <PUBCHEM_MMFF94_ENERGY>
0.499

> <PUBCHEM_FEATURE_SELFOVERLAP>
15.223

> <PUBCHEM_SHAPE_FINGERPRINT>
12897270 3 18334576858199779365
14390081 3 14996277016199053621
15310529 11 18334570222733633535
21293036 1 18339087089541537036
23552333 60 18271524208590430194
23552423 10 18193842539599043307
29004967 10 18408323284981379585
5460574 1 9511464424508289205

> <PUBCHEM_SHAPE_MULTIPOLES>
133.21
4.48
0.94
0.75
1.52
0.23
0
0.09
-0.79
-0.36
0.05
0.09
-0.05
-0.13

> <PUBCHEM_SHAPE_SELFOVERLAP>
235.327

> <PUBCHEM_SHAPE_VOLUME>
87.6

> <PUBCHEM_COORDINATE_TYPE>
2
5
10

$$$$
