193539
  -OEChem-09202005123D

 29 30  0     0  0  0  0  0  0999 V2000
   -0.4649   -0.6688    0.4410 O   0  0  0  0  0  0  0  0  0  0  0  0
   -0.7921    1.1384   -0.9954 O   0  0  0  0  0  0  0  0  0  0  0  0
    5.6020    0.9084    0.7346 O   0  5  0  0  0  0  0  0  0  0  0  0
    5.6416   -0.4502   -0.9893 O   0  0  0  0  0  0  0  0  0  0  0  0
   -3.2245    2.3123   -0.4289 N   0  0  0  0  0  0  0  0  0  0  0  0
    5.0230    0.1404   -0.0712 N   0  3  0  0  0  0  0  0  0  0  0  0
   -2.6613   -0.0415   -0.1009 C   0  0  0  0  0  0  0  0  0  0  0  0
   -3.6110    0.9774   -0.1747 C   0  0  0  0  0  0  0  0  0  0  0  0
    0.9117   -0.4655    0.3122 C   0  0  0  0  0  0  0  0  0  0  0  0
   -3.0637   -1.3529    0.1520 C   0  0  0  0  0  0  0  0  0  0  0  0
   -1.2411    0.2315   -0.2835 C   0  0  0  0  0  0  0  0  0  0  0  0
    1.5415    0.3767    1.2012 C   0  0  0  0  0  0  0  0  0  0  0  0
    1.5843   -1.1163   -0.6978 C   0  0  0  0  0  0  0  0  0  0  0  0
    3.6243   -0.0670    0.0601 C   0  0  0  0  0  0  0  0  0  0  0  0
   -4.9630    0.6849    0.0044 C   0  0  0  0  0  0  0  0  0  0  0  0
    2.9158    0.5786    1.0734 C   0  0  0  0  0  0  0  0  0  0  0  0
    2.9586   -0.9145   -0.8255 C   0  0  0  0  0  0  0  0  0  0  0  0
   -4.4157   -1.6454    0.3311 C   0  0  0  0  0  0  0  0  0  0  0  0
   -5.3655   -0.6265    0.2573 C   0  0  0  0  0  0  0  0  0  0  0  0
   -2.3530   -2.1738    0.2003 H   0  0  0  0  0  0  0  0  0  0  0  0
    0.9895    0.8781    1.9899 H   0  0  0  0  0  0  0  0  0  0  0  0
    1.0656   -1.7763   -1.3860 H   0  0  0  0  0  0  0  0  0  0  0  0
   -5.7137    1.4693   -0.0506 H   0  0  0  0  0  0  0  0  0  0  0  0
    3.4009    1.2459    1.7813 H   0  0  0  0  0  0  0  0  0  0  0  0
    3.4778   -1.4339   -1.6269 H   0  0  0  0  0  0  0  0  0  0  0  0
   -4.7299   -2.6669    0.5243 H   0  0  0  0  0  0  0  0  0  0  0  0
   -6.4183   -0.8545    0.3959 H   0  0  0  0  0  0  0  0  0  0  0  0
   -2.2514    2.5560   -0.5508 H   0  0  0  0  0  0  0  0  0  0  0  0
   -3.9285    3.0371   -0.4776 H   0  0  0  0  0  0  0  0  0  0  0  0
  1  9  1  0  0  0  0
  1 11  1  0  0  0  0
  2 11  2  0  0  0  0
  3  6  1  0  0  0  0
  4  6  2  0  0  0  0
  5  8  1  0  0  0  0
  5 28  1  0  0  0  0
  5 29  1  0  0  0  0
  6 14  1  0  0  0  0
  7  8  1  0  0  0  0
  7 10  2  0  0  0  0
  7 11  1  0  0  0  0
  8 15  2  0  0  0  0
  9 12  2  0  0  0  0
  9 13  1  0  0  0  0
 10 18  1  0  0  0  0
 10 20  1  0  0  0  0
 12 16  1  0  0  0  0
 12 21  1  0  0  0  0
 13 17  2  0  0  0  0
 13 22  1  0  0  0  0
 14 16  2  0  0  0  0
 14 17  1  0  0  0  0
 15 19  1  0  0  0  0
 15 23  1  0  0  0  0
 16 24  1  0  0  0  0
 17 25  1  0  0  0  0
 18 19  2  0  0  0  0
 18 26  1  0  0  0  0
 19 27  1  0  0  0  0
M  CHG  2   3  -1   6   1
M  END
> <PUBCHEM_COMPOUND_CID>
193539

> <PUBCHEM_CONFORMER_RMSD>
0.6

> <PUBCHEM_CONFORMER_DIVERSEORDER>
1
49
33
41
11
43
40
37
3
48
29
47
6
17
20
22
2
34
23
45
5
44
31
28
7
52
42
13
21
30
46
12
50
10
32
16
18
4
36
9
53
25
15
8
14
26
24
51
39
35
19
27
38

> <PUBCHEM_MMFF94_PARTIAL_CHARGES>
29
1 -0.23
10 -0.15
11 0.63
12 -0.15
13 -0.15
14 0.13
15 -0.15
16 -0.15
17 -0.15
18 -0.15
19 -0.15
2 -0.57
20 0.15
21 0.15
22 0.15
23 0.15
24 0.15
25 0.15
26 0.15
27 0.15
28 0.4
29 0.4
3 -0.52
4 -0.52
5 -0.9
6 0.91
7 0.09
8 0.1
9 0.08

> <PUBCHEM_EFFECTIVE_ROTOR_COUNT>
4

> <PUBCHEM_PHARMACOPHORE_FEATURES>
8
1 2 acceptor
1 3 acceptor
1 3 anion
1 4 acceptor
1 5 cation
1 5 donor
6 7 8 10 15 18 19 rings
6 9 12 13 14 16 17 rings

> <PUBCHEM_HEAVY_ATOM_COUNT>
19

> <PUBCHEM_ATOM_DEF_STEREO_COUNT>
0

> <PUBCHEM_ATOM_UDEF_STEREO_COUNT>
0

> <PUBCHEM_BOND_DEF_STEREO_COUNT>
0

> <PUBCHEM_BOND_UDEF_STEREO_COUNT>
0

> <PUBCHEM_ISOTOPIC_ATOM_COUNT>
0

> <PUBCHEM_COMPONENT_COUNT>
1

> <PUBCHEM_CACTVS_TAUTO_COUNT>
2

> <PUBCHEM_CONFORMER_ID>
0002F40300000001

> <PUBCHEM_MMFF94_ENERGY>
77.6892

> <PUBCHEM_FEATURE_SELFOVERLAP>
40.676

> <PUBCHEM_SHAPE_FINGERPRINT>
10 15 18271232933263215464
10366900 7 18272077306421604859
10912923 1 17458060456676572448
11287383 113 18341895216563836698
12107183 9 17394152244954544768
12236239 1 16660361480474238867
12390115 104 18197505026423371233
12403259 415 18130781278574971720
12616971 3 16733274499180461871
12730499 353 18202849859492858694
12916748 109 18260552216390094474
13760787 5 15841550777792065080
14341114 176 18273219707012569441
14386348 63 18272655649094859031
14573314 32 18343023263521843183
17844677 252 18413395336652946720
18186145 218 16630232675787563890
19489759 90 18040715865922473891
200 152 16559032679381394675
20645477 56 18410011001587520641
20645477 70 17417817180122933214
21033648 29 17703213053878954625
21267235 1 18261118517309751579
21641784 216 17560540459735607760
2297311 6 18411707590778320445
23402539 116 18040712580177761278
23402655 69 17632576032916142594
23557571 272 18410862031459981388
23559900 14 18340767057277498895
2916195 48 18339634637995644032
300161 21 17603858992859825611
34797466 226 18271541882650041316
3545911 37 18342458132157532563
4214541 1 18411700963469761401
474 4 16371866216910544908
5104073 3 18337672997023269235
542803 24 17095523993502653046
7495541 125 18411417345404525584

> <PUBCHEM_SHAPE_MULTIPOLES>
357.57
12.8
1.46
0.95
5.1
0.24
0.05
0.11
0.04
-1.5
-0.14
0.63
0.06
1.12

> <PUBCHEM_SHAPE_SELFOVERLAP>
777.441

> <PUBCHEM_SHAPE_VOLUME>
193.5

> <PUBCHEM_COORDINATE_TYPE>
2
5
10

$$$$
