13450772
  -OEChem-09202005223D

 26 26  0     0  0  0  0  0  0999 V2000
    3.8046    0.0614   -0.3961 S   0  0  0  0  0  0  0  0  0  0  0  0
   -1.1217   -1.3672   -0.5886 O   0  0  0  0  0  0  0  0  0  0  0  0
   -2.3464    2.2292    0.9274 O   0  0  0  0  0  0  0  0  0  0  0  0
   -2.9923    0.6588   -0.5837 O   0  0  0  0  0  0  0  0  0  0  0  0
   -0.2322   -0.3563   -0.3791 C   0  0  0  0  0  0  0  0  0  0  0  0
   -0.6718    0.9305   -0.0682 C   0  0  0  0  0  0  0  0  0  0  0  0
    1.1337   -0.6217   -0.4782 C   0  0  0  0  0  0  0  0  0  0  0  0
    2.0597    0.3996   -0.2666 C   0  0  0  0  0  0  0  0  0  0  0  0
    0.2543    1.9518    0.1435 C   0  0  0  0  0  0  0  0  0  0  0  0
    1.6201    1.6863    0.0442 C   0  0  0  0  0  0  0  0  0  0  0  0
   -1.0338   -2.4969    0.2772 C   0  0  0  0  0  0  0  0  0  0  0  0
   -2.4127   -3.0995    0.4429 C   0  0  0  0  0  0  0  0  0  0  0  0
   -2.0929    1.2288    0.0407 C   0  0  0  0  0  0  0  0  0  0  0  0
    4.0314   -1.2048    0.8845 C   0  0  0  0  0  0  0  0  0  0  0  0
    1.4684   -1.6236   -0.7370 H   0  0  0  0  0  0  0  0  0  0  0  0
   -0.0572    2.9671    0.3747 H   0  0  0  0  0  0  0  0  0  0  0  0
    2.3272    2.4956    0.2096 H   0  0  0  0  0  0  0  0  0  0  0  0
   -0.3566   -3.2339   -0.1681 H   0  0  0  0  0  0  0  0  0  0  0  0
   -0.6456   -2.2098    1.2624 H   0  0  0  0  0  0  0  0  0  0  0  0
   -2.3801   -3.9785    1.0927 H   0  0  0  0  0  0  0  0  0  0  0  0
   -3.1037   -2.3670    0.8733 H   0  0  0  0  0  0  0  0  0  0  0  0
   -2.8247   -3.3930   -0.5282 H   0  0  0  0  0  0  0  0  0  0  0  0
    3.4964   -2.1212    0.6226 H   0  0  0  0  0  0  0  0  0  0  0  0
    3.6731   -0.8375    1.8501 H   0  0  0  0  0  0  0  0  0  0  0  0
    5.0958   -1.4382    0.9724 H   0  0  0  0  0  0  0  0  0  0  0  0
   -3.3057    2.4230    0.9947 H   0  0  0  0  0  0  0  0  0  0  0  0
  1  8  1  0  0  0  0
  1 14  1  0  0  0  0
  2  5  1  0  0  0  0
  2 11  1  0  0  0  0
  3 13  1  0  0  0  0
  3 26  1  0  0  0  0
  4 13  2  0  0  0  0
  5  6  2  0  0  0  0
  5  7  1  0  0  0  0
  6  9  1  0  0  0  0
  6 13  1  0  0  0  0
  7  8  2  0  0  0  0
  7 15  1  0  0  0  0
  8 10  1  0  0  0  0
  9 10  2  0  0  0  0
  9 16  1  0  0  0  0
 10 17  1  0  0  0  0
 11 12  1  0  0  0  0
 11 18  1  0  0  0  0
 11 19  1  0  0  0  0
 12 20  1  0  0  0  0
 12 21  1  0  0  0  0
 12 22  1  0  0  0  0
 14 23  1  0  0  0  0
 14 24  1  0  0  0  0
 14 25  1  0  0  0  0
M  END
> <PUBCHEM_COMPOUND_CID>
13450772

> <PUBCHEM_CONFORMER_RMSD>
0.6

> <PUBCHEM_CONFORMER_DIVERSEORDER>
1
22
19
5
30
27
15
26
14
12
17
28
11
16
23
21
29
25
8
20
3
2
18
9
6
4
24
13
7
10

> <PUBCHEM_MMFF94_PARTIAL_CHARGES>
17
1 -0.33
10 -0.15
11 0.28
13 0.63
14 0.23
15 0.15
16 0.15
17 0.15
2 -0.36
26 0.5
3 -0.65
4 -0.57
5 0.08
6 0.09
7 -0.15
8 0.1
9 -0.15

> <PUBCHEM_EFFECTIVE_ROTOR_COUNT>
4

> <PUBCHEM_PHARMACOPHORE_FEATURES>
6
1 14 hydrophobe
1 2 acceptor
1 3 acceptor
1 4 acceptor
3 3 4 13 anion
6 5 6 7 8 9 10 rings

> <PUBCHEM_HEAVY_ATOM_COUNT>
14

> <PUBCHEM_ATOM_DEF_STEREO_COUNT>
0

> <PUBCHEM_ATOM_UDEF_STEREO_COUNT>
0

> <PUBCHEM_BOND_DEF_STEREO_COUNT>
0

> <PUBCHEM_BOND_UDEF_STEREO_COUNT>
0

> <PUBCHEM_ISOTOPIC_ATOM_COUNT>
0

> <PUBCHEM_COMPONENT_COUNT>
1

> <PUBCHEM_CACTVS_TAUTO_COUNT>
1

> <PUBCHEM_CONFORMER_ID>
00CD3E1400000001

> <PUBCHEM_MMFF94_ENERGY>
44.4368

> <PUBCHEM_FEATURE_SELFOVERLAP>
30.509

> <PUBCHEM_SHAPE_FINGERPRINT>
11680986 33 18198050585294354320
13140716 1 18341332304864311520
13380535 76 18342455885652578518
13538477 17 18334295358059731454
15490181 8 18271258126792429997
161256 15 17765163056312783892
16945 1 18340779164748316228
193761 8 18195529422374978188
20511035 2 18201431549490655716
20645476 183 18042147408861263262
20711985 365 18265334091170031359
20871998 184 18202006576770586398
21501502 16 18265340684171469660
2334 1 18124312959195876428
23402539 116 18272075072706444677
23500284 5 18262517121242598922
23552423 10 18117841225302060940
23559900 14 18271250426986667798
23598294 1 18410294735548470962
2748010 2 18126842926740258668
305870 269 17978231560650757857
3071541 236 18410009910017000474
43471831 8 17977102353592710634
54173680 148 18410577322425657054
58807428 26 17908142075351954424
74978 22 18408884061976930044
81228 2 18263654033339729571
8809292 202 18337392754886807599

> <PUBCHEM_SHAPE_MULTIPOLES>
274.35
5.42
3.01
0.81
4.05
1.36
-0.06
1.66
-0.59
-2.7
-0.73
0.11
0.03
-0.32

> <PUBCHEM_SHAPE_SELFOVERLAP>
549.556

> <PUBCHEM_SHAPE_VOLUME>
164

> <PUBCHEM_COORDINATE_TYPE>
2
5
10

$$$$
