96692
  -OEChem-09202004513D

 19 19  0     0  0  0  0  0  0999 V2000
   -3.4600    1.2186    0.0668 N   0  0  0  0  0  0  0  0  0  0  0  0
    1.2215    0.0481   -0.2893 C   0  0  0  0  0  0  0  0  0  0  0  0
    2.4744    0.8157   -0.5454 C   0  0  0  0  0  0  0  0  0  0  0  0
   -0.0060    0.7091   -0.2483 C   0  0  0  0  0  0  0  0  0  0  0  0
    1.2778   -1.3313   -0.0905 C   0  0  0  0  0  0  0  0  0  0  0  0
    3.1195    1.3208    0.7426 C   0  0  0  0  0  0  0  0  0  0  0  0
   -1.1774   -0.0094   -0.0085 C   0  0  0  0  0  0  0  0  0  0  0  0
    0.1065   -2.0499    0.1492 C   0  0  0  0  0  0  0  0  0  0  0  0
   -1.1210   -1.3889    0.1903 C   0  0  0  0  0  0  0  0  0  0  0  0
   -2.4354    0.6673    0.0332 C   0  0  0  0  0  0  0  0  0  0  0  0
    3.1921    0.1897   -1.0905 H   0  0  0  0  0  0  0  0  0  0  0  0
    2.2641    1.6668   -1.2052 H   0  0  0  0  0  0  0  0  0  0  0  0
   -0.0471    1.7855   -0.4020 H   0  0  0  0  0  0  0  0  0  0  0  0
    2.2282   -1.8578   -0.1182 H   0  0  0  0  0  0  0  0  0  0  0  0
    2.4432    1.9863    1.2896 H   0  0  0  0  0  0  0  0  0  0  0  0
    4.0336    1.8776    0.5140 H   0  0  0  0  0  0  0  0  0  0  0  0
    3.3836    0.4899    1.4055 H   0  0  0  0  0  0  0  0  0  0  0  0
    0.1506   -3.1240    0.3044 H   0  0  0  0  0  0  0  0  0  0  0  0
   -2.0253   -1.9629    0.3782 H   0  0  0  0  0  0  0  0  0  0  0  0
  1 10  3  0  0  0  0
  2  3  1  0  0  0  0
  2  4  2  0  0  0  0
  2  5  1  0  0  0  0
  3  6  1  0  0  0  0
  3 11  1  0  0  0  0
  3 12  1  0  0  0  0
  4  7  1  0  0  0  0
  4 13  1  0  0  0  0
  5  8  2  0  0  0  0
  5 14  1  0  0  0  0
  6 15  1  0  0  0  0
  6 16  1  0  0  0  0
  6 17  1  0  0  0  0
  7  9  2  0  0  0  0
  7 10  1  0  0  0  0
  8  9  1  0  0  0  0
  8 18  1  0  0  0  0
  9 19  1  0  0  0  0
M  END
> <PUBCHEM_COMPOUND_CID>
96692

> <PUBCHEM_CONFORMER_RMSD>
0.4

> <PUBCHEM_CONFORMER_DIVERSEORDER>
1
2
3
4

> <PUBCHEM_MMFF94_PARTIAL_CHARGES>
13
1 -0.56
10 0.48
13 0.15
14 0.15
18 0.15
19 0.15
2 -0.14
3 0.14
4 -0.15
5 -0.15
7 0.07
8 -0.15
9 -0.15

> <PUBCHEM_EFFECTIVE_ROTOR_COUNT>
1

> <PUBCHEM_PHARMACOPHORE_FEATURES>
3
1 1 acceptor
1 6 hydrophobe
6 2 4 5 7 8 9 rings

> <PUBCHEM_HEAVY_ATOM_COUNT>
10

> <PUBCHEM_ATOM_DEF_STEREO_COUNT>
0

> <PUBCHEM_ATOM_UDEF_STEREO_COUNT>
0

> <PUBCHEM_BOND_DEF_STEREO_COUNT>
0

> <PUBCHEM_BOND_UDEF_STEREO_COUNT>
0

> <PUBCHEM_ISOTOPIC_ATOM_COUNT>
0

> <PUBCHEM_COMPONENT_COUNT>
1

> <PUBCHEM_CACTVS_TAUTO_COUNT>
1

> <PUBCHEM_CONFORMER_ID>
000179B400000001

> <PUBCHEM_MMFF94_ENERGY>
16.7677

> <PUBCHEM_FEATURE_SELFOVERLAP>
15.223

> <PUBCHEM_SHAPE_FINGERPRINT>
13380535 76 18409726278908808375
14325111 11 18410014321190980637
14390081 3 18343865523883663177
14897335 6 18411693292452377519
16945 1 18048886482831316334
20645464 45 18201161074030321100
20871998 184 17982179120927300838
21040471 1 18336553797365543502
21524375 3 18411132545648308959
23235685 24 18408882940636972932
241688 4 16969426210418979730
2748010 2 18336842938780029127
369184 2 17986393510710703266
53812653 166 18342457070905264112
6333449 129 18269272524677434693
7364860 26 18199186179084711390

> <PUBCHEM_SHAPE_MULTIPOLES>
200.81
4.36
1.87
0.72
0.42
0.82
0.02
-3.09
0.48
0.1
0.16
-0.28
-0.08
0.2

> <PUBCHEM_SHAPE_SELFOVERLAP>
412.582

> <PUBCHEM_SHAPE_VOLUME>
114.7

> <PUBCHEM_COORDINATE_TYPE>
2
5
10

$$$$
