4484071
  -OEChem-09102005343D

 54 57  0     1  0  0  0  0  0999 V2000
    2.3054    0.3689    0.6213 O   0  0  0  0  0  0  0  0  0  0  0  0
    1.3686   -0.2649   -1.4352 O   0  0  0  0  0  0  0  0  0  0  0  0
    5.4675    2.2608   -1.2662 O   0  0  0  0  0  0  0  0  0  0  0  0
    5.6635    1.5522    1.5278 O   0  0  0  0  0  0  0  0  0  0  0  0
    2.6907    2.1788   -1.5158 O   0  0  0  0  0  0  0  0  0  0  0  0
    2.1810   -0.0771    3.3209 O   0  0  0  0  0  0  0  0  0  0  0  0
    0.4727   -4.7309   -0.1332 O   0  0  0  0  0  0  0  0  0  0  0  0
   -0.5221    1.4418   -1.1568 O   0  0  0  0  0  0  0  0  0  0  0  0
   -3.8226   -2.2669    0.8213 O   0  0  0  0  0  0  0  0  0  0  0  0
   -2.3057    3.2680   -0.9410 O   0  0  0  0  0  0  0  0  0  0  0  0
    4.7323    1.1959   -0.6695 C   0  0  1  0  0  0  0  0  0  0  0  0
    4.4422    1.5425    0.7932 C   0  0  1  0  0  0  0  0  0  0  0  0
    3.4339    0.9582   -1.4401 C   0  0  1  0  0  0  0  0  0  0  0  0
    3.4913    0.5077    1.4109 C   0  0  1  0  0  0  0  0  0  0  0  0
    2.5794   -0.0768   -0.7090 C   0  0  1  0  0  0  0  0  0  0  0  0
    3.0612    0.9113    2.8177 C   0  0  0  0  0  0  0  0  0  0  0  0
    0.4741   -1.1590   -0.9257 C   0  0  0  0  0  0  0  0  0  0  0  0
   -0.8277   -0.8064   -0.5498 C   0  0  0  0  0  0  0  0  0  0  0  0
   -1.6901   -1.7756   -0.0331 C   0  0  0  0  0  0  0  0  0  0  0  0
    0.9078   -2.4775   -0.7838 C   0  0  0  0  0  0  0  0  0  0  0  0
   -1.2784    0.5918   -0.7042 C   0  0  0  0  0  0  0  0  0  0  0  0
   -2.6543    0.9502   -0.3035 C   0  0  0  0  0  0  0  0  0  0  0  0
   -3.5165   -0.0190    0.2136 C   0  0  0  0  0  0  0  0  0  0  0  0
   -3.0659   -1.4173    0.3678 C   0  0  0  0  0  0  0  0  0  0  0  0
   -1.2509   -3.0976    0.1072 C   0  0  0  0  0  0  0  0  0  0  0  0
    0.0470   -3.4448   -0.2687 C   0  0  0  0  0  0  0  0  0  0  0  0
   -3.0937    2.2719   -0.4444 C   0  0  0  0  0  0  0  0  0  0  0  0
   -4.8182    0.3337    0.5897 C   0  0  0  0  0  0  0  0  0  0  0  0
   -5.2520    1.6521    0.4473 C   0  0  0  0  0  0  0  0  0  0  0  0
   -4.3917    2.6190   -0.0688 C   0  0  0  0  0  0  0  0  0  0  0  0
   -6.6395    2.0268    0.8467 C   0  0  0  0  0  0  0  0  0  0  0  0
    1.8107   -5.0174   -0.5365 C   0  0  0  0  0  0  0  0  0  0  0  0
    5.3686    0.3045   -0.7218 H   0  0  0  0  0  0  0  0  0  0  0  0
    4.0118    2.5503    0.8509 H   0  0  0  0  0  0  0  0  0  0  0  0
    3.6329    0.6461   -2.4713 H   0  0  0  0  0  0  0  0  0  0  0  0
    3.9774   -0.4754    1.4759 H   0  0  0  0  0  0  0  0  0  0  0  0
    3.1408   -1.0185   -0.6663 H   0  0  0  0  0  0  0  0  0  0  0  0
    2.5244    1.8658    2.8138 H   0  0  0  0  0  0  0  0  0  0  0  0
    3.9108    0.9865    3.5014 H   0  0  0  0  0  0  0  0  0  0  0  0
    4.9728    3.0863   -1.1299 H   0  0  0  0  0  0  0  0  0  0  0  0
    5.4943    1.9849    2.3813 H   0  0  0  0  0  0  0  0  0  0  0  0
    3.1875    2.7874   -2.0884 H   0  0  0  0  0  0  0  0  0  0  0  0
    1.9106   -2.7151   -1.1192 H   0  0  0  0  0  0  0  0  0  0  0  0
    1.4300   -0.1429    2.7066 H   0  0  0  0  0  0  0  0  0  0  0  0
   -1.9076   -3.8663    0.5070 H   0  0  0  0  0  0  0  0  0  0  0  0
   -5.5004   -0.4116    0.9918 H   0  0  0  0  0  0  0  0  0  0  0  0
   -4.7289    3.6468   -0.1824 H   0  0  0  0  0  0  0  0  0  0  0  0
   -7.3258    1.8739    0.0079 H   0  0  0  0  0  0  0  0  0  0  0  0
   -6.9814    1.4249    1.6955 H   0  0  0  0  0  0  0  0  0  0  0  0
   -6.6936    3.0760    1.1565 H   0  0  0  0  0  0  0  0  0  0  0  0
   -1.4268    2.9306   -1.1689 H   0  0  0  0  0  0  0  0  0  0  0  0
    1.9823   -6.0828   -0.3503 H   0  0  0  0  0  0  0  0  0  0  0  0
    2.5410   -4.4675    0.0669 H   0  0  0  0  0  0  0  0  0  0  0  0
    1.9509   -4.8559   -1.6107 H   0  0  0  0  0  0  0  0  0  0  0  0
  1 14  1  0  0  0  0
  1 15  1  0  0  0  0
  2 15  1  0  0  0  0
  2 17  1  0  0  0  0
  3 11  1  0  0  0  0
  3 40  1  0  0  0  0
  4 12  1  0  0  0  0
  4 41  1  0  0  0  0
  5 13  1  0  0  0  0
  5 42  1  0  0  0  0
  6 16  1  0  0  0  0
  6 44  1  0  0  0  0
  7 26  1  0  0  0  0
  7 32  1  0  0  0  0
  8 21  2  0  0  0  0
  9 24  2  0  0  0  0
 10 27  1  0  0  0  0
 10 51  1  0  0  0  0
 11 12  1  0  0  0  0
 11 13  1  0  0  0  0
 11 33  1  0  0  0  0
 12 14  1  0  0  0  0
 12 34  1  0  0  0  0
 13 15  1  0  0  0  0
 13 35  1  0  0  0  0
 14 16  1  0  0  0  0
 14 36  1  0  0  0  0
 15 37  1  0  0  0  0
 16 38  1  0  0  0  0
 16 39  1  0  0  0  0
 17 18  1  0  0  0  0
 17 20  2  0  0  0  0
 18 19  2  0  0  0  0
 18 21  1  0  0  0  0
 19 24  1  0  0  0  0
 19 25  1  0  0  0  0
 20 26  1  0  0  0  0
 20 43  1  0  0  0  0
 21 22  1  0  0  0  0
 22 23  2  0  0  0  0
 22 27  1  0  0  0  0
 23 24  1  0  0  0  0
 23 28  1  0  0  0  0
 25 26  2  0  0  0  0
 25 45  1  0  0  0  0
 27 30  2  0  0  0  0
 28 29  2  0  0  0  0
 28 46  1  0  0  0  0
 29 30  1  0  0  0  0
 29 31  1  0  0  0  0
 30 47  1  0  0  0  0
 31 48  1  0  0  0  0
 31 49  1  0  0  0  0
 31 50  1  0  0  0  0
 32 52  1  0  0  0  0
 32 53  1  0  0  0  0
 32 54  1  0  0  0  0
M  END
> <PUBCHEM_COMPOUND_CID>
4484071

> <PUBCHEM_CONFORMER_RMSD>
0.8

> <PUBCHEM_CONFORMER_DIVERSEORDER>
1
169
186
29
69
205
160
143
163
137
146
116
65
206
167
119
189
183
153
165
125
104
78
175
52
191
140
176
195
132
201
178
54
37
170
162
180
207
103
108
47
168
202
209
101
152
204
49
135
208
124
84
63
70
71
46
127
98
154
105
157
211
147
7
62
11
23
174
73
35
203
17
80
9
134
190
199
185
193
43
151
66
118
22
88
159
16
44
96
10
86
13
121
50
40
142
128
173
74
93
102
133
91
42
36
12
150
210
192
184
8
75
68
126
3
177
179
171
129
85
2
187
6
41
77
111
97
56
212
155
32
122
15
145
100
26
57
99
82
61
19
64
4
182
60
131
141
113
166
106
79
5
20
76
30
196
81
107
31
172
200
112
67
110
33
21
94
48
34
53
197
51
95
164
109
158
198
18
194
90
148
92
120
55
188
27
136
59
156
123
39
149
14
58
72
45
117
161
139
144
89
87
130
83
28
38
25
114
138
115
24
181

> <PUBCHEM_MMFF94_PARTIAL_CHARGES>
41
1 -0.56
10 -0.53
11 0.28
12 0.28
13 0.28
14 0.28
15 0.56
16 0.28
17 0.08
18 0.09
19 0.09
2 -0.36
20 -0.15
21 0.4
22 0.09
23 0.09
24 0.4
25 -0.15
26 0.08
27 0.08
28 -0.15
29 -0.14
3 -0.68
30 -0.15
31 0.14
32 0.28
4 -0.68
40 0.4
41 0.4
42 0.4
43 0.15
44 0.4
45 0.15
46 0.15
47 0.15
5 -0.68
51 0.45
6 -0.68
7 -0.36
8 -0.57
9 -0.57

> <PUBCHEM_EFFECTIVE_ROTOR_COUNT>
5.2

> <PUBCHEM_PHARMACOPHORE_FEATURES>
18
1 1 acceptor
1 10 donor
1 2 acceptor
1 3 acceptor
1 3 donor
1 4 acceptor
1 4 donor
1 5 acceptor
1 5 donor
1 6 acceptor
1 6 donor
1 7 acceptor
1 8 acceptor
1 9 acceptor
6 1 11 12 13 14 15 rings
6 17 18 19 20 25 26 rings
6 18 19 21 22 23 24 rings
6 22 23 27 28 29 30 rings

> <PUBCHEM_HEAVY_ATOM_COUNT>
32

> <PUBCHEM_ATOM_DEF_STEREO_COUNT>
0

> <PUBCHEM_ATOM_UDEF_STEREO_COUNT>
5

> <PUBCHEM_BOND_DEF_STEREO_COUNT>
0

> <PUBCHEM_BOND_UDEF_STEREO_COUNT>
0

> <PUBCHEM_ISOTOPIC_ATOM_COUNT>
0

> <PUBCHEM_COMPONENT_COUNT>
1

> <PUBCHEM_CACTVS_TAUTO_COUNT>
12

> <PUBCHEM_CONFORMER_ID>
00446BE700000001

> <PUBCHEM_MMFF94_ENERGY>
117.8156

> <PUBCHEM_FEATURE_SELFOVERLAP>
91.48

> <PUBCHEM_SHAPE_FINGERPRINT>
10074138 170 18192700365992778827
10165383 225 18342748394257866960
10319926 262 18411135857859482378
10411042 1 17474119077319915815
1100329 8 17044301861517844825
11070050 100 18272368629299526025
11578080 2 18201447943908287323
11582403 64 17846773022779212742
11725454 13 17775002418387191110
12422481 6 17968088673168749975
12596602 18 17386004039180199800
12788726 201 17756994775946038042
12839892 36 18335140912423856973
13140716 1 18336267829985442655
13383668 362 18267296548371296859
13726171 33 18195542590977531296
13757389 114 18051429653326758622
13782708 43 17630902684110452078
13911987 19 18118957234068390519
13965767 371 17968093062736577668
14341114 328 17748826349512805544
14790565 3 18264785413604184981
14849402 71 18051423876358173018
15064986 96 17974547127577789226
15131766 46 15328065507590864418
15230672 131 18409454679402199070
15297060 5 18341348750373637744
15403338 16 16660913405690139057
15927050 60 18412832386700227534
18785283 64 18192148196602513682
20511986 3 17604133939085859068
20554085 129 18272080583466041953
21033648 29 18130217259480772352
21133410 127 17968385532956882020
21756936 100 18341888654028076900
22149856 69 18120402916519448697
23559900 14 17902514788153159973
25222932 49 16806756008469575241
350125 39 18265061240651207614
469060 322 18193579950311010667
508706 21 18058441183036489323
5104073 3 18048050580050028889
5252454 2 18201717323766208385
5265222 85 18267036110481395054
5385378 56 18269000799577198961
57124632 79 18266454304655984775
7808743 9 18338519758753317092
9981440 41 18408889555250917851

> <PUBCHEM_SHAPE_MULTIPOLES>
599.85
11.5
4.82
1.75
4.27
6.85
1.41
-12.15
2.87
-0.88
-0.84
-2.55
-0.92
0.57

> <PUBCHEM_SHAPE_SELFOVERLAP>
1321.741

> <PUBCHEM_SHAPE_VOLUME>
319.5

> <PUBCHEM_COORDINATE_TYPE>
2
5
10

$$$$
