361512
  -OEChem-09102005503D

 31 33  0     0  0  0  0  0  0999 V2000
   -2.0710   -2.8868    0.0453 O   0  0  0  0  0  0  0  0  0  0  0  0
    0.4719   -2.5940   -0.0476 O   0  0  0  0  0  0  0  0  0  0  0  0
    0.0475    2.7293    0.1567 O   0  0  0  0  0  0  0  0  0  0  0  0
    3.0287   -2.4730   -0.1444 O   0  0  0  0  0  0  0  0  0  0  0  0
    5.0045    1.8321   -0.0734 O   0  0  0  0  0  0  0  0  0  0  0  0
   -5.3008    1.3489   -1.0174 O   0  0  0  0  0  0  0  0  0  0  0  0
   -1.0634    0.6599    0.1300 C   0  0  0  0  0  0  0  0  0  0  0  0
   -0.9526   -0.7310    0.0764 C   0  0  0  0  0  0  0  0  0  0  0  0
    1.5833   -0.5253   -0.0189 C   0  0  0  0  0  0  0  0  0  0  0  0
    1.4725    0.8657    0.0348 C   0  0  0  0  0  0  0  0  0  0  0  0
    0.3749   -1.3745   -0.0004 C   0  0  0  0  0  0  0  0  0  0  0  0
    0.1450    1.5092    0.1108 C   0  0  0  0  0  0  0  0  0  0  0  0
   -2.3275    1.2574    0.2026 C   0  0  0  0  0  0  0  0  0  0  0  0
   -2.1059   -1.5246    0.0956 C   0  0  0  0  0  0  0  0  0  0  0  0
   -3.4741    0.4630    0.2214 C   0  0  0  0  0  0  0  0  0  0  0  0
    2.8473   -1.1227   -0.0910 C   0  0  0  0  0  0  0  0  0  0  0  0
   -3.3635   -0.9250    0.1679 C   0  0  0  0  0  0  0  0  0  0  0  0
    2.6258    1.6593    0.0169 C   0  0  0  0  0  0  0  0  0  0  0  0
    3.8835    1.0597   -0.0549 C   0  0  0  0  0  0  0  0  0  0  0  0
    3.9941   -0.3283   -0.1087 C   0  0  0  0  0  0  0  0  0  0  0  0
   -4.8204    1.1006    0.2981 C   0  0  0  0  0  0  0  0  0  0  0  0
   -2.4275    2.3395    0.2428 H   0  0  0  0  0  0  0  0  0  0  0  0
   -4.2567   -1.5456    0.1803 H   0  0  0  0  0  0  0  0  0  0  0  0
    2.5524    2.7432    0.0582 H   0  0  0  0  0  0  0  0  0  0  0  0
    4.9812   -0.7814   -0.1643 H   0  0  0  0  0  0  0  0  0  0  0  0
   -5.5392    0.4566    0.8155 H   0  0  0  0  0  0  0  0  0  0  0  0
   -4.7849    2.0492    0.8448 H   0  0  0  0  0  0  0  0  0  0  0  0
   -1.1580   -3.2065   -0.0035 H   0  0  0  0  0  0  0  0  0  0  0  0
    3.9789   -2.6741   -0.1897 H   0  0  0  0  0  0  0  0  0  0  0  0
    4.7442    2.7682   -0.0299 H   0  0  0  0  0  0  0  0  0  0  0  0
   -4.6010    1.8029   -1.5171 H   0  0  0  0  0  0  0  0  0  0  0  0
  1 14  1  0  0  0  0
  1 28  1  0  0  0  0
  2 11  2  0  0  0  0
  3 12  2  0  0  0  0
  4 16  1  0  0  0  0
  4 29  1  0  0  0  0
  5 19  1  0  0  0  0
  5 30  1  0  0  0  0
  6 21  1  0  0  0  0
  6 31  1  0  0  0  0
  7  8  2  0  0  0  0
  7 12  1  0  0  0  0
  7 13  1  0  0  0  0
  8 11  1  0  0  0  0
  8 14  1  0  0  0  0
  9 10  2  0  0  0  0
  9 11  1  0  0  0  0
  9 16  1  0  0  0  0
 10 12  1  0  0  0  0
 10 18  1  0  0  0  0
 13 15  2  0  0  0  0
 13 22  1  0  0  0  0
 14 17  2  0  0  0  0
 15 17  1  0  0  0  0
 15 21  1  0  0  0  0
 16 20  2  0  0  0  0
 17 23  1  0  0  0  0
 18 19  2  0  0  0  0
 18 24  1  0  0  0  0
 19 20  1  0  0  0  0
 20 25  1  0  0  0  0
 21 26  1  0  0  0  0
 21 27  1  0  0  0  0
M  END
> <PUBCHEM_COMPOUND_CID>
361512

> <PUBCHEM_CONFORMER_RMSD>
0.6

> <PUBCHEM_CONFORMER_DIVERSEORDER>
1

> <PUBCHEM_MMFF94_PARTIAL_CHARGES>
29
1 -0.53
10 0.09
11 0.4
12 0.4
13 -0.15
14 0.08
15 -0.14
16 0.08
17 -0.15
18 -0.15
19 0.08
2 -0.57
20 -0.15
21 0.42
22 0.15
23 0.15
24 0.15
25 0.15
28 0.45
29 0.45
3 -0.57
30 0.45
31 0.4
4 -0.53
5 -0.53
6 -0.68
7 0.09
8 0.09
9 0.09

> <PUBCHEM_EFFECTIVE_ROTOR_COUNT>
1

> <PUBCHEM_PHARMACOPHORE_FEATURES>
10
1 1 donor
1 2 acceptor
1 3 acceptor
1 4 donor
1 5 donor
1 6 acceptor
1 6 donor
6 7 8 13 14 15 17 rings
6 7 8 9 10 11 12 rings
6 9 10 16 18 19 20 rings

> <PUBCHEM_HEAVY_ATOM_COUNT>
21

> <PUBCHEM_ATOM_DEF_STEREO_COUNT>
0

> <PUBCHEM_ATOM_UDEF_STEREO_COUNT>
0

> <PUBCHEM_BOND_DEF_STEREO_COUNT>
0

> <PUBCHEM_BOND_UDEF_STEREO_COUNT>
0

> <PUBCHEM_ISOTOPIC_ATOM_COUNT>
0

> <PUBCHEM_COMPONENT_COUNT>
1

> <PUBCHEM_CACTVS_TAUTO_COUNT>
57

> <PUBCHEM_CONFORMER_ID>
0005842800000001

> <PUBCHEM_MMFF94_ENERGY>
65.0166

> <PUBCHEM_FEATURE_SELFOVERLAP>
50.789

> <PUBCHEM_SHAPE_FINGERPRINT>
10411042 1 17402051093967036587
10498660 4 18411426132870819732
10616163 171 18339929345328762894
10863032 1 18413392054996933842
10967382 1 18411140203764992762
11132069 177 18410291432227763080
11471102 20 18411135797038895789
11578080 2 17169537520612151502
12011746 2 18340209591796815844
12236239 1 17774720858413207633
12403814 3 17748821934439198349
12500047 106 18339357565048882729
12788726 201 17560531594453337545
13132413 78 18340772649166779796
13140716 1 18409728452389237282
13675066 3 18040444286777266521
138480 1 17617942430978690963
14790565 3 18196380212932355433
15196674 1 18410857676331455475
15375358 24 18413389838767370285
15442244 35 18267587901487197650
15536298 74 18343024380651183350
1601671 61 18408604785849648452
16945 1 18195249914609073754
19591789 44 18194404394372630017
200 152 17917425428578004661
20645477 70 18341895143301726327
20739085 24 18048909332353055289
21029758 11 18272084985623170209
21267235 1 18339654347057220058
21421861 104 17968929787285882442
22182313 1 18198083501860446471
23227448 37 18410574019917449775
2334 1 18339364170608526082
23402539 116 18271238417503896340
23402655 69 18343582944994758604
23463225 33 18409732854703886826
23559900 14 18342459249218418004
2748010 2 18411987991633548406
296302 2 18411139142966073421
335352 9 18410856525897431470
34934 24 18410852178963090746
350125 39 18337392630907638948
3545911 37 18410859879676071561
495365 180 17489010639535812048
5104073 3 18409732867420205475
57005193 9 18411413999345478929
59755656 215 18411141291024643798
69090 78 18411698768788828943
7364860 26 18341615863443765254
7832392 63 18412261774207748358
9709674 26 18412552036819766366

> <PUBCHEM_SHAPE_MULTIPOLES>
396.95
8.74
2.75
0.64
2.08
0.95
-0.03
-3.32
-0.8
-0.42
-0.02
0.26
-0.07
0.25

> <PUBCHEM_SHAPE_SELFOVERLAP>
897.44

> <PUBCHEM_SHAPE_VOLUME>
206.4

> <PUBCHEM_COORDINATE_TYPE>
2
5
10

$$$$
