5319333
  -OEChem-09102006333D

 51 54  0     1  0  0  0  0  0999 V2000
   -2.3182   -0.1661    0.6728 O   0  0  0  0  0  0  0  0  0  0  0  0
   -1.4130    0.4267   -1.3944 O   0  0  0  0  0  0  0  0  0  0  0  0
   -5.4040   -2.2015   -1.1164 O   0  0  0  0  0  0  0  0  0  0  0  0
   -5.6001   -1.4511    1.6683 O   0  0  0  0  0  0  0  0  0  0  0  0
   -3.8883   -0.1760   -2.6264 O   0  0  0  0  0  0  0  0  0  0  0  0
   -2.1754    0.3639    3.3663 O   0  0  0  0  0  0  0  0  0  0  0  0
    0.4221   -1.3414   -1.1345 O   0  0  0  0  0  0  0  0  0  0  0  0
    3.8794    2.2651    0.7626 O   0  0  0  0  0  0  0  0  0  0  0  0
    2.1453   -3.2263   -0.9342 O   0  0  0  0  0  0  0  0  0  0  0  0
    6.4262   -2.0867    0.7445 O   0  0  0  0  0  0  0  0  0  0  0  0
   -4.7563   -1.0588   -0.5551 C   0  0  1  0  0  0  0  0  0  0  0  0
   -4.4037   -1.3809    0.8972 C   0  0  1  0  0  0  0  0  0  0  0  0
   -3.5042   -0.7324   -1.3692 C   0  0  2  0  0  0  0  0  0  0  0  0
   -3.4856   -0.3063    1.4844 C   0  0  1  0  0  0  0  0  0  0  0  0
   -2.6199    0.2834   -0.6462 C   0  0  1  0  0  0  0  0  0  0  0  0
   -3.0255   -0.6652    2.8937 C   0  0  0  0  0  0  0  0  0  0  0  0
   -0.4809    1.2933   -0.9051 C   0  0  0  0  0  0  0  0  0  0  0  0
    0.8141    0.8987   -0.5481 C   0  0  0  0  0  0  0  0  0  0  0  0
    1.7174    1.8411   -0.0522 C   0  0  0  0  0  0  0  0  0  0  0  0
   -0.8671    2.6266   -0.7648 C   0  0  0  0  0  0  0  0  0  0  0  0
    1.2141   -0.5151   -0.7001 C   0  0  0  0  0  0  0  0  0  0  0  0
    0.0343    3.5670   -0.2701 C   0  0  0  0  0  0  0  0  0  0  0  0
    2.5833   -0.9179   -0.3188 C   0  0  0  0  0  0  0  0  0  0  0  0
    1.3259    3.1781    0.0867 C   0  0  0  0  0  0  0  0  0  0  0  0
    3.4865    0.0244    0.1776 C   0  0  0  0  0  0  0  0  0  0  0  0
    3.0867    1.4384    0.3284 C   0  0  0  0  0  0  0  0  0  0  0  0
    2.9748   -2.2549   -0.4573 C   0  0  0  0  0  0  0  0  0  0  0  0
   -0.3822    4.9916   -0.1222 C   0  0  0  0  0  0  0  0  0  0  0  0
    4.7811   -0.3703    0.5358 C   0  0  0  0  0  0  0  0  0  0  0  0
    4.2660   -2.6439   -0.0993 C   0  0  0  0  0  0  0  0  0  0  0  0
    5.1671   -1.7037    0.3962 C   0  0  0  0  0  0  0  0  0  0  0  0
   -5.4773   -0.2340   -0.6109 H   0  0  0  0  0  0  0  0  0  0  0  0
   -3.9225   -2.3670    0.9350 H   0  0  0  0  0  0  0  0  0  0  0  0
   -2.9458   -1.6525   -1.5821 H   0  0  0  0  0  0  0  0  0  0  0  0
   -3.9979    0.6643    1.5318 H   0  0  0  0  0  0  0  0  0  0  0  0
   -3.1436    1.2470   -0.6026 H   0  0  0  0  0  0  0  0  0  0  0  0
   -2.4560   -1.6004    2.9039 H   0  0  0  0  0  0  0  0  0  0  0  0
   -3.8641   -0.7543    3.5892 H   0  0  0  0  0  0  0  0  0  0  0  0
   -6.1856   -2.3911   -0.5695 H   0  0  0  0  0  0  0  0  0  0  0  0
   -5.3869   -1.8886    2.5094 H   0  0  0  0  0  0  0  0  0  0  0  0
   -3.0728    0.0349   -3.1126 H   0  0  0  0  0  0  0  0  0  0  0  0
   -1.8602    2.9522   -1.0641 H   0  0  0  0  0  0  0  0  0  0  0  0
   -1.4340    0.4434    2.7418 H   0  0  0  0  0  0  0  0  0  0  0  0
    2.0204    3.9220    0.4696 H   0  0  0  0  0  0  0  0  0  0  0  0
   -1.4509    5.0689    0.1053 H   0  0  0  0  0  0  0  0  0  0  0  0
    0.1551    5.4783    0.6990 H   0  0  0  0  0  0  0  0  0  0  0  0
   -0.1793    5.5401   -1.0474 H   0  0  0  0  0  0  0  0  0  0  0  0
    5.4933    0.3541    0.9235 H   0  0  0  0  0  0  0  0  0  0  0  0
    4.5812   -3.6797   -0.2026 H   0  0  0  0  0  0  0  0  0  0  0  0
    2.6134   -4.0785   -0.9484 H   0  0  0  0  0  0  0  0  0  0  0  0
    6.9149   -1.3102    1.0674 H   0  0  0  0  0  0  0  0  0  0  0  0
  1 14  1  0  0  0  0
  1 15  1  0  0  0  0
  2 15  1  0  0  0  0
  2 17  1  0  0  0  0
  3 11  1  0  0  0  0
  3 39  1  0  0  0  0
  4 12  1  0  0  0  0
  4 40  1  0  0  0  0
  5 13  1  0  0  0  0
  5 41  1  0  0  0  0
  6 16  1  0  0  0  0
  6 43  1  0  0  0  0
  7 21  2  0  0  0  0
  8 26  2  0  0  0  0
  9 27  1  0  0  0  0
  9 50  1  0  0  0  0
 10 31  1  0  0  0  0
 10 51  1  0  0  0  0
 11 12  1  0  0  0  0
 11 13  1  0  0  0  0
 11 32  1  0  0  0  0
 12 14  1  0  0  0  0
 12 33  1  0  0  0  0
 13 15  1  0  0  0  0
 13 34  1  0  0  0  0
 14 16  1  0  0  0  0
 14 35  1  0  0  0  0
 15 36  1  0  0  0  0
 16 37  1  0  0  0  0
 16 38  1  0  0  0  0
 17 18  1  0  0  0  0
 17 20  2  0  0  0  0
 18 19  2  0  0  0  0
 18 21  1  0  0  0  0
 19 24  1  0  0  0  0
 19 26  1  0  0  0  0
 20 22  1  0  0  0  0
 20 42  1  0  0  0  0
 21 23  1  0  0  0  0
 22 24  2  0  0  0  0
 22 28  1  0  0  0  0
 23 25  2  0  0  0  0
 23 27  1  0  0  0  0
 24 44  1  0  0  0  0
 25 26  1  0  0  0  0
 25 29  1  0  0  0  0
 27 30  2  0  0  0  0
 28 45  1  0  0  0  0
 28 46  1  0  0  0  0
 28 47  1  0  0  0  0
 29 31  2  0  0  0  0
 29 48  1  0  0  0  0
 30 31  1  0  0  0  0
 30 49  1  0  0  0  0
M  END
> <PUBCHEM_COMPOUND_CID>
5319333

> <PUBCHEM_CONFORMER_RMSD>
0.8

> <PUBCHEM_CONFORMER_DIVERSEORDER>
1
39
10
38
35
15
7
17
44
24
30
11
2
32
25
5
45
42
36
4
6
8
29
3
31
34
18
26
21
33
14
23
9
28
37
13
40
41
16
22
43
12
27
19
20

> <PUBCHEM_MMFF94_PARTIAL_CHARGES>
41
1 -0.56
10 -0.53
11 0.28
12 0.28
13 0.28
14 0.28
15 0.56
16 0.28
17 0.08
18 0.09
19 0.09
2 -0.36
20 -0.15
21 0.4
22 -0.14
23 0.09
24 -0.15
25 0.09
26 0.4
27 0.08
28 0.14
29 -0.15
3 -0.68
30 -0.15
31 0.08
39 0.4
4 -0.68
40 0.4
41 0.4
42 0.15
43 0.4
44 0.15
48 0.15
49 0.15
5 -0.68
50 0.45
51 0.45
6 -0.68
7 -0.57
8 -0.57
9 -0.53

> <PUBCHEM_EFFECTIVE_ROTOR_COUNT>
4.2

> <PUBCHEM_PHARMACOPHORE_FEATURES>
18
1 1 acceptor
1 10 donor
1 2 acceptor
1 3 acceptor
1 3 donor
1 4 acceptor
1 4 donor
1 5 acceptor
1 5 donor
1 6 acceptor
1 6 donor
1 7 acceptor
1 8 acceptor
1 9 donor
6 1 11 12 13 14 15 rings
6 17 18 19 20 22 24 rings
6 18 19 21 23 25 26 rings
6 23 25 27 29 30 31 rings

> <PUBCHEM_HEAVY_ATOM_COUNT>
31

> <PUBCHEM_ATOM_DEF_STEREO_COUNT>
5

> <PUBCHEM_ATOM_UDEF_STEREO_COUNT>
0

> <PUBCHEM_BOND_DEF_STEREO_COUNT>
0

> <PUBCHEM_BOND_UDEF_STEREO_COUNT>
0

> <PUBCHEM_ISOTOPIC_ATOM_COUNT>
0

> <PUBCHEM_COMPONENT_COUNT>
1

> <PUBCHEM_CACTVS_TAUTO_COUNT>
12

> <PUBCHEM_CONFORMER_ID>
00512AA500000001

> <PUBCHEM_MMFF94_ENERGY>
102.9905

> <PUBCHEM_FEATURE_SELFOVERLAP>
91.472

> <PUBCHEM_SHAPE_FINGERPRINT>
11582403 64 16240612098244939485
11595378 159 16486977297288534443
11796584 16 17023175063417105105
11991303 11 17827363172210577669
12166972 35 18129935810442514119
12342043 65 17460047377873990083
12363563 72 18261116257207167079
12422481 6 17845380959305869172
12553582 1 18341059553114028358
12596602 18 17346038986259773547
12788726 201 17974274439935789505
13009979 54 17704075135377396599
13134695 92 18335427927529116973
13140716 1 18269553849647541676
13544653 18 18335421257344302988
13583140 156 13614229340010409046
13782708 43 17604436318433258379
13965767 371 17343248245475915753
14341114 328 17060068076702348443
14790565 3 17760366995715941252
14844126 61 18121769543766077106
15361156 5 18263095318482590076
15927050 60 17764866188922390564
16752209 62 14997111636262200241
17349148 13 18131355249456763083
1813 80 18272664436471249356
19315092 285 17416661704902081871
20101258 96 18267585715444127324
20511986 3 17775282790232214993
20739085 24 18341902930246362372
21033650 10 16371280022451790125
21756936 100 14332825086066338734
21796203 349 18192460608186109058
23559900 14 16877946078483552191
2747138 104 18411411792645113610
3380486 145 18189621707606815771
3383291 50 16610823761891246391
3737641 26 17985557658752261038
44802255 64 15003654945839006052
469060 322 18270685264481510794
5104073 3 17981310211353855546
5309563 4 18411131429110026918
57527295 17 17823955885018944671

> <PUBCHEM_SHAPE_MULTIPOLES>
579.27
11.3
4.26
1.9
0.16
4.97
1.24
-11.39
2.27
2.21
-0.44
-3.29
-0.6
0.56

> <PUBCHEM_SHAPE_SELFOVERLAP>
1281.849

> <PUBCHEM_SHAPE_VOLUME>
307

> <PUBCHEM_COORDINATE_TYPE>
2
5
10

$$$$
