6453389
  -OEChem-09102005373D

 58 60  0     1  0  0  0  0  0999 V2000
   -1.0916    1.0687    0.0952 O   0  0  0  0  0  0  0  0  0  0  0  0
    3.7706    0.2703   -0.1055 O   0  0  0  0  0  0  0  0  0  0  0  0
    1.4497    0.0781   -0.2470 O   0  0  0  0  0  0  0  0  0  0  0  0
    0.7197    4.2444   -0.1228 O   0  0  0  0  0  0  0  0  0  0  0  0
   -3.3499    0.5193   -0.1099 O   0  0  0  0  0  0  0  0  0  0  0  0
   -1.9697    5.0535    0.5612 O   0  0  0  0  0  0  0  0  0  0  0  0
    1.6846   -2.7245    0.0666 O   0  0  0  0  0  0  0  0  0  0  0  0
    4.2800   -3.7261   -0.9035 O   0  0  0  0  0  0  0  0  0  0  0  0
   -3.9372    3.2322   -0.6606 O   0  0  0  0  0  0  0  0  0  0  0  0
    6.4484   -2.2028    0.2511 O   0  0  0  0  0  0  0  0  0  0  0  0
    5.7903    1.9535    0.6969 O   0  0  0  0  0  0  0  0  0  0  0  0
   -0.0278    1.9555   -0.2557 C   0  0  1  0  0  0  0  0  0  0  0  0
   -0.3059    3.3521    0.3050 C   0  0  2  0  0  0  0  0  0  0  0  0
   -1.6606    3.8706   -0.1775 C   0  0  1  0  0  0  0  0  0  0  0  0
    2.7588   -1.9159   -0.4126 C   0  0  2  0  0  0  0  0  0  0  0  0
    4.0899   -2.5838   -0.0672 C   0  0  2  0  0  0  0  0  0  0  0  0
    2.6448   -0.5357    0.2345 C   0  0  1  0  0  0  0  0  0  0  0  0
   -2.7607    2.8317    0.0415 C   0  0  2  0  0  0  0  0  0  0  0  0
    5.2630   -1.6304   -0.2950 C   0  0  1  0  0  0  0  0  0  0  0  0
    5.0009   -0.2777    0.3714 C   0  0  1  0  0  0  0  0  0  0  0  0
   -2.3384    1.4571   -0.4767 C   0  0  1  0  0  0  0  0  0  0  0  0
    1.2639    1.3687    0.3049 C   0  0  0  0  0  0  0  0  0  0  0  0
    6.1040    0.7286    0.0596 C   0  0  0  0  0  0  0  0  0  0  0  0
   -3.0285   -0.7880   -0.5583 C   0  0  0  0  0  0  0  0  0  0  0  0
   -4.1219   -1.7296   -0.1467 C   0  0  0  0  0  0  0  0  0  0  0  0
   -4.0474   -2.3761    1.0820 C   0  0  0  0  0  0  0  0  0  0  0  0
   -5.2000   -1.9468   -0.9976 C   0  0  0  0  0  0  0  0  0  0  0  0
   -5.0639   -3.2512    1.4649 C   0  0  0  0  0  0  0  0  0  0  0  0
   -6.2165   -2.8219   -0.6146 C   0  0  0  0  0  0  0  0  0  0  0  0
   -6.1484   -3.4741    0.6166 C   0  0  0  0  0  0  0  0  0  0  0  0
    0.0582    1.9801   -1.3507 H   0  0  0  0  0  0  0  0  0  0  0  0
   -0.2913    3.3375    1.4018 H   0  0  0  0  0  0  0  0  0  0  0  0
   -1.6150    4.1676   -1.2326 H   0  0  0  0  0  0  0  0  0  0  0  0
    2.6405   -1.8439   -1.5003 H   0  0  0  0  0  0  0  0  0  0  0  0
    4.0886   -2.9533    0.9657 H   0  0  0  0  0  0  0  0  0  0  0  0
    2.5657   -0.6262    1.3265 H   0  0  0  0  0  0  0  0  0  0  0  0
   -3.0279    2.7795    1.1037 H   0  0  0  0  0  0  0  0  0  0  0  0
    5.4259   -1.5045   -1.3724 H   0  0  0  0  0  0  0  0  0  0  0  0
    4.9354   -0.3818    1.4631 H   0  0  0  0  0  0  0  0  0  0  0  0
   -2.2612    1.4646   -1.5726 H   0  0  0  0  0  0  0  0  0  0  0  0
    2.1073    2.0201    0.0522 H   0  0  0  0  0  0  0  0  0  0  0  0
    1.1925    1.2796    1.3957 H   0  0  0  0  0  0  0  0  0  0  0  0
    7.0773    0.3893    0.4254 H   0  0  0  0  0  0  0  0  0  0  0  0
    6.1787    0.9213   -1.0158 H   0  0  0  0  0  0  0  0  0  0  0  0
    0.7194    4.2582   -1.0952 H   0  0  0  0  0  0  0  0  0  0  0  0
   -1.2467    5.6869    0.4122 H   0  0  0  0  0  0  0  0  0  0  0  0
    1.7744   -2.8041    1.0316 H   0  0  0  0  0  0  0  0  0  0  0  0
    3.5154   -4.3124   -0.7714 H   0  0  0  0  0  0  0  0  0  0  0  0
   -3.7203    3.2852   -1.6071 H   0  0  0  0  0  0  0  0  0  0  0  0
    6.3179   -2.3075    1.2090 H   0  0  0  0  0  0  0  0  0  0  0  0
   -2.9171   -0.7954   -1.6499 H   0  0  0  0  0  0  0  0  0  0  0  0
   -2.0782   -1.1294   -0.1296 H   0  0  0  0  0  0  0  0  0  0  0  0
    4.9220    2.2427    0.3677 H   0  0  0  0  0  0  0  0  0  0  0  0
   -3.2084   -2.2080    1.7516 H   0  0  0  0  0  0  0  0  0  0  0  0
   -5.2642   -1.4424   -1.9578 H   0  0  0  0  0  0  0  0  0  0  0  0
   -5.0113   -3.7586    2.4237 H   0  0  0  0  0  0  0  0  0  0  0  0
   -7.0614   -2.9951   -1.2748 H   0  0  0  0  0  0  0  0  0  0  0  0
   -6.9400   -4.1552    0.9148 H   0  0  0  0  0  0  0  0  0  0  0  0
  1 12  1  0  0  0  0
  1 21  1  0  0  0  0
  2 17  1  0  0  0  0
  2 20  1  0  0  0  0
  3 17  1  0  0  0  0
  3 22  1  0  0  0  0
  4 13  1  0  0  0  0
  4 45  1  0  0  0  0
  5 21  1  0  0  0  0
  5 24  1  0  0  0  0
  6 14  1  0  0  0  0
  6 46  1  0  0  0  0
  7 15  1  0  0  0  0
  7 47  1  0  0  0  0
  8 16  1  0  0  0  0
  8 48  1  0  0  0  0
  9 18  1  0  0  0  0
  9 49  1  0  0  0  0
 10 19  1  0  0  0  0
 10 50  1  0  0  0  0
 11 23  1  0  0  0  0
 11 53  1  0  0  0  0
 12 13  1  0  0  0  0
 12 22  1  0  0  0  0
 12 31  1  0  0  0  0
 13 14  1  0  0  0  0
 13 32  1  0  0  0  0
 14 18  1  0  0  0  0
 14 33  1  0  0  0  0
 15 16  1  0  0  0  0
 15 17  1  0  0  0  0
 15 34  1  0  0  0  0
 16 19  1  0  0  0  0
 16 35  1  0  0  0  0
 17 36  1  0  0  0  0
 18 21  1  0  0  0  0
 18 37  1  0  0  0  0
 19 20  1  0  0  0  0
 19 38  1  0  0  0  0
 20 23  1  0  0  0  0
 20 39  1  0  0  0  0
 21 40  1  0  0  0  0
 22 41  1  0  0  0  0
 22 42  1  0  0  0  0
 23 43  1  0  0  0  0
 23 44  1  0  0  0  0
 24 25  1  0  0  0  0
 24 51  1  0  0  0  0
 24 52  1  0  0  0  0
 25 26  2  0  0  0  0
 25 27  1  0  0  0  0
 26 28  1  0  0  0  0
 26 54  1  0  0  0  0
 27 29  2  0  0  0  0
 27 55  1  0  0  0  0
 28 30  2  0  0  0  0
 28 56  1  0  0  0  0
 29 30  1  0  0  0  0
 29 57  1  0  0  0  0
 30 58  1  0  0  0  0
M  END
> <PUBCHEM_COMPOUND_CID>
6453389

> <PUBCHEM_CONFORMER_RMSD>
1

> <PUBCHEM_CONFORMER_DIVERSEORDER>
1
26
91
135
47
11
72
132
75
105
116
67
3
37
84
56
115
112
44
100
40
29
108
12
25
104
102
66
50
21
86
46
32
36
61
28
65
14
126
89
53
109
88
95
68
48
34
114
24
128
55
93
119
87
43
27
8
57
59
13
122
133
117
30
39
98
15
22
7
81
82
90
51
5
42
79
107
129
20
35
113
38
106
41
97
78
10
76
94
52
110
118
134
17
127
19
70
33
9
92
73
101
130
45
69
4
138
121
77
23
64
99
103
63
111
6
80
18
54
2
60
131
74
62
49
124
85
96
83
123
120
136
31
125
58
16
71
137

> <PUBCHEM_MMFF94_PARTIAL_CHARGES>
42
1 -0.56
10 -0.68
11 -0.68
12 0.28
13 0.28
14 0.28
15 0.28
16 0.28
17 0.56
18 0.28
19 0.28
2 -0.56
20 0.28
21 0.56
22 0.28
23 0.28
24 0.42
25 -0.14
26 -0.15
27 -0.15
28 -0.15
29 -0.15
3 -0.56
30 -0.15
4 -0.68
45 0.4
46 0.4
47 0.4
48 0.4
49 0.4
5 -0.56
50 0.4
53 0.4
54 0.15
55 0.15
56 0.15
57 0.15
58 0.15
6 -0.68
7 -0.68
8 -0.68
9 -0.68

> <PUBCHEM_EFFECTIVE_ROTOR_COUNT>
9.4

> <PUBCHEM_PHARMACOPHORE_FEATURES>
21
1 1 acceptor
1 10 acceptor
1 10 donor
1 11 acceptor
1 11 donor
1 2 acceptor
1 3 acceptor
1 4 acceptor
1 4 donor
1 5 acceptor
1 6 acceptor
1 6 donor
1 7 acceptor
1 7 donor
1 8 acceptor
1 8 donor
1 9 acceptor
1 9 donor
6 1 12 13 14 18 21 rings
6 2 15 16 17 19 20 rings
6 25 26 27 28 29 30 rings

> <PUBCHEM_HEAVY_ATOM_COUNT>
30

> <PUBCHEM_ATOM_DEF_STEREO_COUNT>
10

> <PUBCHEM_ATOM_UDEF_STEREO_COUNT>
0

> <PUBCHEM_BOND_DEF_STEREO_COUNT>
0

> <PUBCHEM_BOND_UDEF_STEREO_COUNT>
0

> <PUBCHEM_ISOTOPIC_ATOM_COUNT>
0

> <PUBCHEM_COMPONENT_COUNT>
1

> <PUBCHEM_CACTVS_TAUTO_COUNT>
1

> <PUBCHEM_CONFORMER_ID>
0062788D00000001

> <PUBCHEM_MMFF94_ENERGY>
84.5896

> <PUBCHEM_FEATURE_SELFOVERLAP>
106.711

> <PUBCHEM_SHAPE_FINGERPRINT>
10411042 1 18411136978619145343
10653451 467 18052247686062600120
11014199 57 18408890607196067332
12516196 113 18338516451544362871
12788726 201 18261105287850625027
13402501 40 18262236745730368075
13631057 29 18410573985515513024
138480 1 15312379608509208709
14068700 686 18413669106621540190
14429380 30 18408605872244350203
14790565 3 17547291108239475289
14866123 147 18338238164223968819
15042514 8 18338802217731335973
15064981 194 18265911158792380772
15250474 111 18045210545183001842
15351339 4 17968361387177835235
15400415 2 17473826122275216372
17492 89 18339360760942803710
17909252 39 18337956812773168448
19301676 85 18194674861902276919
19315092 285 17344348006860972811
21133410 171 17541044937385701499
23559900 14 17982441600038965320
25025965 108 17985803996011459302
329604 57 18334297608232496862
3421961 26 18194965373426569001
4073 2 18266178336502678218
437815 12 18335977675575834495
5104073 3 18342452600450698066
5309563 4 18338516451918954663
6004065 56 18194116554429025379
613672 6 18266716126258104651
6431902 208 18410008857914004647
7970288 3 18339078310745077999

> <PUBCHEM_SHAPE_MULTIPOLES>
552.82
16
6.53
0.88
4.56
5.78
0.09
-18.43
0.82
-4.5
0.38
-0.82
-0.45
1.65

> <PUBCHEM_SHAPE_SELFOVERLAP>
1151.101

> <PUBCHEM_SHAPE_VOLUME>
308.9

> <PUBCHEM_COORDINATE_TYPE>
2
5
10

$$$$
