135482359
  -OEChem-09102005313D

 52 55  0     1  0  0  0  0  0999 V2000
    1.7943    0.2827   -0.6548 O   0  0  0  0  0  0  0  0  0  0  0  0
    0.8292    0.3184    1.4692 O   0  0  0  0  0  0  0  0  0  0  0  0
    5.0315   -1.8442    0.7100 O   0  0  0  0  0  0  0  0  0  0  0  0
    5.1799   -0.4723   -1.8300 O   0  0  0  0  0  0  0  0  0  0  0  0
    3.3393   -0.3419    2.5967 O   0  0  0  0  0  0  0  0  0  0  0  0
    1.6233    1.3924   -3.1638 O   0  0  0  0  0  0  0  0  0  0  0  0
   -0.8050   -1.5094    0.7665 O   0  0  0  0  0  0  0  0  0  0  0  0
   -4.4301   -2.7898   -0.8102 O   0  0  0  0  0  0  0  0  0  0  0  0
   -0.5490    4.7963    0.8394 O   0  0  0  0  0  0  0  0  0  0  0  0
    4.2921   -0.6614    0.4028 C   0  0  1  0  0  0  0  0  0  0  0  0
    3.9771   -0.6757   -1.0931 C   0  0  1  0  0  0  0  0  0  0  0  0
    3.0118   -0.6302    1.2377 C   0  0  2  0  0  0  0  0  0  0  0  0
    2.9743    0.4249   -1.4475 C   0  0  1  0  0  0  0  0  0  0  0  0
    2.0485    0.4465    0.7384 C   0  0  1  0  0  0  0  0  0  0  0  0
    2.5552    0.3564   -2.9126 C   0  0  0  0  0  0  0  0  0  0  0  0
   -0.0826    1.2731    1.0650 C   0  0  0  0  0  0  0  0  0  0  0  0
   -1.3609    0.8018    0.5101 C   0  0  0  0  0  0  0  0  0  0  0  0
   -2.3543    1.8062    0.0707 C   0  0  0  0  0  0  0  0  0  0  0  0
   -1.6953   -0.5092    0.3719 C   0  0  0  0  0  0  0  0  0  0  0  0
   -3.0143   -0.9316   -0.2015 C   0  0  0  0  0  0  0  0  0  0  0  0
    0.1916    2.5806    1.1764 C   0  0  0  0  0  0  0  0  0  0  0  0
   -3.9798    0.1137   -0.6289 C   0  0  0  0  0  0  0  0  0  0  0  0
   -3.6382    1.4085   -0.4872 C   0  0  0  0  0  0  0  0  0  0  0  0
   -2.0783    3.1183    0.1833 C   0  0  0  0  0  0  0  0  0  0  0  0
   -0.7909    3.5981    0.7415 C   0  0  0  0  0  0  0  0  0  0  0  0
   -3.2628   -2.2613   -0.3028 C   0  0  0  0  0  0  0  0  0  0  0  0
   -5.3251   -0.2178   -1.2142 C   0  0  0  0  0  0  0  0  0  0  0  0
   -1.1243   -2.8460    0.6351 C   0  0  0  0  0  0  0  0  0  0  0  0
   -2.2949   -3.2431    0.1260 C   0  0  0  0  0  0  0  0  0  0  0  0
   -0.0623   -3.7840    1.1057 C   0  0  0  0  0  0  0  0  0  0  0  0
    4.9458    0.1814    0.6563 H   0  0  0  0  0  0  0  0  0  0  0  0
    3.5817   -1.6588   -1.3769 H   0  0  0  0  0  0  0  0  0  0  0  0
    2.5252   -1.6126    1.2315 H   0  0  0  0  0  0  0  0  0  0  0  0
    3.3999    1.4208   -1.2633 H   0  0  0  0  0  0  0  0  0  0  0  0
    2.5011    1.4299    0.9239 H   0  0  0  0  0  0  0  0  0  0  0  0
    2.0616   -0.5961   -3.1326 H   0  0  0  0  0  0  0  0  0  0  0  0
    3.4113    0.4838   -3.5820 H   0  0  0  0  0  0  0  0  0  0  0  0
    4.4690   -2.6124    0.5124 H   0  0  0  0  0  0  0  0  0  0  0  0
    5.5314    0.4036   -1.5955 H   0  0  0  0  0  0  0  0  0  0  0  0
    3.7757    0.5267    2.6245 H   0  0  0  0  0  0  0  0  0  0  0  0
    1.1143    2.9531    1.6066 H   0  0  0  0  0  0  0  0  0  0  0  0
    1.3658    1.3265   -4.0991 H   0  0  0  0  0  0  0  0  0  0  0  0
   -4.3249    2.1946   -0.7914 H   0  0  0  0  0  0  0  0  0  0  0  0
   -2.7801    3.8867   -0.1276 H   0  0  0  0  0  0  0  0  0  0  0  0
   -5.2181   -0.7903   -2.1413 H   0  0  0  0  0  0  0  0  0  0  0  0
   -5.8963    0.6828   -1.4683 H   0  0  0  0  0  0  0  0  0  0  0  0
   -5.9343   -0.7815   -0.5001 H   0  0  0  0  0  0  0  0  0  0  0  0
   -2.5288   -4.2981    0.0303 H   0  0  0  0  0  0  0  0  0  0  0  0
    0.1598   -3.6044    2.1625 H   0  0  0  0  0  0  0  0  0  0  0  0
   -0.3603   -4.8318    0.9972 H   0  0  0  0  0  0  0  0  0  0  0  0
    0.8565   -3.6334    0.5298 H   0  0  0  0  0  0  0  0  0  0  0  0
   -4.3849   -3.7603   -0.7850 H   0  0  0  0  0  0  0  0  0  0  0  0
  1 13  1  0  0  0  0
  1 14  1  0  0  0  0
  2 14  1  0  0  0  0
  2 16  1  0  0  0  0
  3 10  1  0  0  0  0
  3 38  1  0  0  0  0
  4 11  1  0  0  0  0
  4 39  1  0  0  0  0
  5 12  1  0  0  0  0
  5 40  1  0  0  0  0
  6 15  1  0  0  0  0
  6 42  1  0  0  0  0
  7 19  1  0  0  0  0
  7 28  1  0  0  0  0
  8 26  1  0  0  0  0
  8 52  1  0  0  0  0
  9 25  2  0  0  0  0
 10 11  1  0  0  0  0
 10 12  1  0  0  0  0
 10 31  1  0  0  0  0
 11 13  1  0  0  0  0
 11 32  1  0  0  0  0
 12 14  1  0  0  0  0
 12 33  1  0  0  0  0
 13 15  1  0  0  0  0
 13 34  1  0  0  0  0
 14 35  1  0  0  0  0
 15 36  1  0  0  0  0
 15 37  1  0  0  0  0
 16 17  1  0  0  0  0
 16 21  2  0  0  0  0
 17 18  1  0  0  0  0
 17 19  2  0  0  0  0
 18 23  1  0  0  0  0
 18 24  2  0  0  0  0
 19 20  1  0  0  0  0
 20 22  1  0  0  0  0
 20 26  2  0  0  0  0
 21 25  1  0  0  0  0
 21 41  1  0  0  0  0
 22 23  2  0  0  0  0
 22 27  1  0  0  0  0
 23 43  1  0  0  0  0
 24 25  1  0  0  0  0
 24 44  1  0  0  0  0
 26 29  1  0  0  0  0
 27 45  1  0  0  0  0
 27 46  1  0  0  0  0
 27 47  1  0  0  0  0
 28 29  2  0  0  0  0
 28 30  1  0  0  0  0
 29 48  1  0  0  0  0
 30 49  1  0  0  0  0
 30 50  1  0  0  0  0
 30 51  1  0  0  0  0
M  END
> <PUBCHEM_COMPOUND_CID>
135482359

> <PUBCHEM_CONFORMER_RMSD>
0.8

> <PUBCHEM_CONFORMER_DIVERSEORDER>
1
25
22
2
6
28
8
33
27
7
15
24
18
32
26
29
31
14
4
16
34
21
17
35
10
20
11
12
5
30
9
3
13
19
23

> <PUBCHEM_MMFF94_PARTIAL_CHARGES>
36
1 -0.56
10 0.28
11 0.28
12 0.28
13 0.28
14 0.56
15 0.28
16 0.08
19 0.08
2 -0.36
21 -0.14
22 -0.14
23 -0.15
24 -0.14
25 0.54
26 0.08
27 0.14
28 -0.06
29 -0.15
3 -0.68
30 0.14
38 0.4
39 0.4
4 -0.68
40 0.4
41 0.15
42 0.4
43 0.15
44 0.15
48 0.15
5 -0.68
52 0.45
6 -0.68
7 -0.15
8 -0.53
9 -0.57

> <PUBCHEM_EFFECTIVE_ROTOR_COUNT>
4.2

> <PUBCHEM_PHARMACOPHORE_FEATURES>
17
1 1 acceptor
1 2 acceptor
1 3 acceptor
1 3 donor
1 4 acceptor
1 4 donor
1 5 acceptor
1 5 donor
1 6 acceptor
1 6 donor
1 7 acceptor
1 8 donor
1 9 acceptor
6 1 10 11 12 13 14 rings
6 16 17 18 21 24 25 rings
6 17 18 19 20 22 23 rings
6 7 19 20 26 28 29 rings

> <PUBCHEM_HEAVY_ATOM_COUNT>
30

> <PUBCHEM_ATOM_DEF_STEREO_COUNT>
5

> <PUBCHEM_ATOM_UDEF_STEREO_COUNT>
0

> <PUBCHEM_BOND_DEF_STEREO_COUNT>
0

> <PUBCHEM_BOND_UDEF_STEREO_COUNT>
0

> <PUBCHEM_ISOTOPIC_ATOM_COUNT>
0

> <PUBCHEM_COMPONENT_COUNT>
1

> <PUBCHEM_CACTVS_TAUTO_COUNT>
-1

> <PUBCHEM_CONFORMER_ID>
08134BF700000001

> <PUBCHEM_MMFF94_ENERGY>
99.1036

> <PUBCHEM_FEATURE_SELFOVERLAP>
86.404

> <PUBCHEM_SHAPE_FINGERPRINT>
10369192 42 13411358561740419190
10693767 8 17914864687709583295
1100329 8 18339632439330935169
11513181 2 17550375676684333095
11578080 2 17317563834055728333
11582403 64 16117331220758816304
11640471 11 17677634024007702836
11828532 37 18265608965610677047
12156800 1 15833606685763837151
12363563 72 17988371462950737822
12539773 59 17824290157348377045
12553582 1 18411706521030894283
12788726 201 18337963311100579688
13009979 54 18187364311809524602
13140716 1 18267009743592489345
14068700 675 18408595955792039502
14251757 5 18335994159011651634
14790565 3 17839181806097843177
14955137 171 18336838575936970387
15420108 30 17399507927866029538
16752209 62 18337388244949393170
17818456 19 18264201431359263242
20511986 3 17894620458022243252
20600515 1 18270663333962565225
20775438 99 17333349699138357599
20905425 154 17984693420794594023
21781051 124 18187368770661291827
21792965 302 17326371060033405230
22907989 373 18118716324608844516
23557571 272 18059569161723873488
23559900 14 18342172302210831280
3178227 256 18337686265332599065
4280585 95 18411978104983083272
463206 1 18410567397136544403
574716 61 17386010606259009478
81228 2 18059027098222715121
9709674 26 17980469385110379875

> <PUBCHEM_SHAPE_MULTIPOLES>
564.56
8.83
4.44
2.02
3.55
1.39
-1.3
-4.16
-3.54
-3.68
1.77
2.61
0.4
-0.83

> <PUBCHEM_SHAPE_SELFOVERLAP>
1230.773

> <PUBCHEM_SHAPE_VOLUME>
304.4

> <PUBCHEM_COORDINATE_TYPE>
2
5
10

$$$$
