14345578
  -OEChem-09102005303D

 53 55  0     1  0  0  0  0  0999 V2000
   -1.8233    0.2047   -0.5768 O   0  0  0  0  0  0  0  0  0  0  0  0
   -0.6924   -0.2835    1.4211 O   0  0  0  0  0  0  0  0  0  0  0  0
   -5.0814    1.7018    1.4930 O   0  0  0  0  0  0  0  0  0  0  0  0
   -5.3523    0.9441   -1.2819 O   0  0  0  0  0  0  0  0  0  0  0  0
   -2.3066    1.9742    1.5741 O   0  0  0  0  0  0  0  0  0  0  0  0
   -1.8047   -0.2508   -3.2776 O   0  0  0  0  0  0  0  0  0  0  0  0
    0.9231    1.7093    1.0443 O   0  0  0  0  0  0  0  0  0  0  0  0
    0.6410   -4.6209    0.0793 O   0  0  0  0  0  0  0  0  0  0  0  0
    3.8674    3.2099    1.1540 O   0  0  0  0  0  0  0  0  0  0  0  0
   -4.2540    0.7322    0.8562 C   0  0  1  0  0  0  0  0  0  0  0  0
   -4.0980    1.0968   -0.6225 C   0  0  1  0  0  0  0  0  0  0  0  0
   -2.8923    0.6687    1.5474 C   0  0  1  0  0  0  0  0  0  0  0  0
   -3.0622    0.1840   -1.2936 C   0  0  1  0  0  0  0  0  0  0  0  0
   -1.9586   -0.2577    0.7690 C   0  0  1  0  0  0  0  0  0  0  0  0
   -2.7714    0.6236   -2.7250 C   0  0  0  0  0  0  0  0  0  0  0  0
    0.2759   -1.0679    0.8538 C   0  0  0  0  0  0  0  0  0  0  0  0
    1.4984   -0.5525    0.3984 C   0  0  0  0  0  0  0  0  0  0  0  0
    2.4467   -1.4323   -0.1756 C   0  0  0  0  0  0  0  0  0  0  0  0
   -0.0119   -2.4275    0.7481 C   0  0  0  0  0  0  0  0  0  0  0  0
    1.8028    0.8150    0.4982 C   0  0  0  0  0  0  0  0  0  0  0  0
    3.0247    1.3076    0.0391 C   0  0  0  0  0  0  0  0  0  0  0  0
    0.9208   -3.2928    0.1840 C   0  0  0  0  0  0  0  0  0  0  0  0
    2.1423   -2.7997   -0.2755 C   0  0  0  0  0  0  0  0  0  0  0  0
    3.6713   -0.9190   -0.6330 C   0  0  0  0  0  0  0  0  0  0  0  0
    3.9570    0.4423   -0.5254 C   0  0  0  0  0  0  0  0  0  0  0  0
    5.2738    0.9412   -1.0266 C   0  0  0  0  0  0  0  0  0  0  0  0
    3.3269    2.7314    0.1488 C   0  0  0  0  0  0  0  0  0  0  0  0
    2.9627    3.6757   -0.9642 C   0  0  0  0  0  0  0  0  0  0  0  0
   -0.6258   -5.0578    0.5688 C   0  0  0  0  0  0  0  0  0  0  0  0
   -4.7619   -0.2353    0.9548 H   0  0  0  0  0  0  0  0  0  0  0  0
   -3.8117    2.1507   -0.7181 H   0  0  0  0  0  0  0  0  0  0  0  0
   -2.9943    0.3548    2.5913 H   0  0  0  0  0  0  0  0  0  0  0  0
   -3.4199   -0.8542   -1.3262 H   0  0  0  0  0  0  0  0  0  0  0  0
   -2.3996   -1.2621    0.7634 H   0  0  0  0  0  0  0  0  0  0  0  0
   -2.3600    1.6380   -2.7559 H   0  0  0  0  0  0  0  0  0  0  0  0
   -3.6683    0.5875   -3.3499 H   0  0  0  0  0  0  0  0  0  0  0  0
   -5.9262    1.7248    1.0118 H   0  0  0  0  0  0  0  0  0  0  0  0
   -5.6201    0.0123   -1.2066 H   0  0  0  0  0  0  0  0  0  0  0  0
   -2.0186    2.1992    0.6734 H   0  0  0  0  0  0  0  0  0  0  0  0
   -0.9553   -2.7771    1.1504 H   0  0  0  0  0  0  0  0  0  0  0  0
   -1.0159   -0.2147   -2.7096 H   0  0  0  0  0  0  0  0  0  0  0  0
    2.8606   -3.4899   -0.7146 H   0  0  0  0  0  0  0  0  0  0  0  0
    4.4034   -1.5921   -1.0758 H   0  0  0  0  0  0  0  0  0  0  0  0
    5.1281    1.6409   -1.8559 H   0  0  0  0  0  0  0  0  0  0  0  0
    5.8285    1.4389   -0.2243 H   0  0  0  0  0  0  0  0  0  0  0  0
    5.9054    0.1258   -1.3959 H   0  0  0  0  0  0  0  0  0  0  0  0
    1.3037    2.5986    1.1107 H   0  0  0  0  0  0  0  0  0  0  0  0
    2.2492    4.4162   -0.5933 H   0  0  0  0  0  0  0  0  0  0  0  0
    2.5014    3.1335   -1.7946 H   0  0  0  0  0  0  0  0  0  0  0  0
    3.8660    4.1701   -1.3311 H   0  0  0  0  0  0  0  0  0  0  0  0
   -0.7153   -4.9027    1.6494 H   0  0  0  0  0  0  0  0  0  0  0  0
   -0.6828   -6.1377    0.3969 H   0  0  0  0  0  0  0  0  0  0  0  0
   -1.4526   -4.6031    0.0123 H   0  0  0  0  0  0  0  0  0  0  0  0
  1 13  1  0  0  0  0
  1 14  1  0  0  0  0
  2 14  1  0  0  0  0
  2 16  1  0  0  0  0
  3 10  1  0  0  0  0
  3 37  1  0  0  0  0
  4 11  1  0  0  0  0
  4 38  1  0  0  0  0
  5 12  1  0  0  0  0
  5 39  1  0  0  0  0
  6 15  1  0  0  0  0
  6 41  1  0  0  0  0
  7 20  1  0  0  0  0
  7 47  1  0  0  0  0
  8 22  1  0  0  0  0
  8 29  1  0  0  0  0
  9 27  2  0  0  0  0
 10 11  1  0  0  0  0
 10 12  1  0  0  0  0
 10 30  1  0  0  0  0
 11 13  1  0  0  0  0
 11 31  1  0  0  0  0
 12 14  1  0  0  0  0
 12 32  1  0  0  0  0
 13 15  1  0  0  0  0
 13 33  1  0  0  0  0
 14 34  1  0  0  0  0
 15 35  1  0  0  0  0
 15 36  1  0  0  0  0
 16 17  2  0  0  0  0
 16 19  1  0  0  0  0
 17 18  1  0  0  0  0
 17 20  1  0  0  0  0
 18 23  2  0  0  0  0
 18 24  1  0  0  0  0
 19 22  2  0  0  0  0
 19 40  1  0  0  0  0
 20 21  2  0  0  0  0
 21 25  1  0  0  0  0
 21 27  1  0  0  0  0
 22 23  1  0  0  0  0
 23 42  1  0  0  0  0
 24 25  2  0  0  0  0
 24 43  1  0  0  0  0
 25 26  1  0  0  0  0
 26 44  1  0  0  0  0
 26 45  1  0  0  0  0
 26 46  1  0  0  0  0
 27 28  1  0  0  0  0
 28 48  1  0  0  0  0
 28 49  1  0  0  0  0
 28 50  1  0  0  0  0
 29 51  1  0  0  0  0
 29 52  1  0  0  0  0
 29 53  1  0  0  0  0
M  END
> <PUBCHEM_COMPOUND_CID>
14345578

> <PUBCHEM_CONFORMER_RMSD>
1

> <PUBCHEM_CONFORMER_DIVERSEORDER>
1
206
173
329
39
362
412
461
254
245
116
482
413
96
63
273
492
311
313
3
110
37
262
66
523
242
2
200
443
32
141
61
11
305
320
58
84
140
12
448
52
6
230
325
269
502
21
376
9
253
494
513
14
56
161
153
185
90
8
13
27
373
47
33
26
122
375
257
157
207
22
379
23
29
485
472
164
109
112
172
15
42
132
64
331
353
28
30
19
268
25
16
283
429
159
146
365
86
188
68
59
98
85
451

> <PUBCHEM_MMFF94_PARTIAL_CHARGES>
35
1 -0.56
10 0.28
11 0.28
12 0.28
13 0.28
14 0.56
15 0.28
16 0.08
19 -0.15
2 -0.36
20 0.08
21 0.09
22 0.08
23 -0.15
24 -0.15
25 -0.14
26 0.14
27 0.42
28 0.06
29 0.28
3 -0.68
37 0.4
38 0.4
39 0.4
4 -0.68
40 0.15
41 0.4
42 0.15
43 0.15
47 0.45
5 -0.68
6 -0.68
7 -0.53
8 -0.36
9 -0.57

> <PUBCHEM_EFFECTIVE_ROTOR_COUNT>
6.2

> <PUBCHEM_PHARMACOPHORE_FEATURES>
16
1 1 acceptor
1 2 acceptor
1 3 acceptor
1 3 donor
1 4 acceptor
1 4 donor
1 5 acceptor
1 5 donor
1 6 acceptor
1 6 donor
1 7 donor
1 8 acceptor
1 9 acceptor
6 1 10 11 12 13 14 rings
6 16 17 18 19 22 23 rings
6 17 18 20 21 24 25 rings

> <PUBCHEM_HEAVY_ATOM_COUNT>
29

> <PUBCHEM_ATOM_DEF_STEREO_COUNT>
0

> <PUBCHEM_ATOM_UDEF_STEREO_COUNT>
5

> <PUBCHEM_BOND_DEF_STEREO_COUNT>
0

> <PUBCHEM_BOND_UDEF_STEREO_COUNT>
0

> <PUBCHEM_ISOTOPIC_ATOM_COUNT>
0

> <PUBCHEM_COMPONENT_COUNT>
1

> <PUBCHEM_CACTVS_TAUTO_COUNT>
29

> <PUBCHEM_CONFORMER_ID>
00DAE56A00000001

> <PUBCHEM_MMFF94_ENERGY>
113.5328

> <PUBCHEM_FEATURE_SELFOVERLAP>
81.297

> <PUBCHEM_SHAPE_FINGERPRINT>
10165383 225 18115891679405808870
10411042 1 17473276370223663106
10670039 82 17182517616377670988
10693767 8 17915185611570809838
1100329 8 18410580561702001762
11578080 2 18044666528073045788
11725454 13 17676486146489488666
12156800 1 17546488851213541887
12173636 292 18269282428882848361
12730499 353 18334582321799178067
13140716 1 18197223757730970584
13540713 4 17841448217748283008
1361 2 18261943159346010845
13782708 43 17459767925241787819
13911987 19 18046370551694544222
16752209 62 16343123733499198725
1813 80 17481706355927997854
19319366 153 18272649043698694291
20511986 3 17560223743913604496
21033648 29 17676480657558590780
21641784 216 17180541789138126014
22122407 14 18053681191749163513
22182313 1 17698736032194773016
2255824 54 18341331072188001290
22907989 373 17617938479687263660
23557571 272 17023200292571992337
23598291 2 17843968031193262387
238 59 18117250641154251262
3380486 145 17401783310918681443
350125 39 18121517983569120066
3886686 26 18051098628129804722
469060 322 16806440499871700263
474 4 18411981360130145056
5252454 2 18114751533366732494
574716 61 18131059450780016453
59025328 239 17116301271713026847
6287921 2 18260841409650039149
633830 44 18272933842695554068
6677587 24 16455653280312627639

> <PUBCHEM_SHAPE_MULTIPOLES>
543.98
9.16
4.82
1.86
3.46
5.92
-1.32
-8.41
-1.48
-3.1
0.75
2.24
-0.84
0.13

> <PUBCHEM_SHAPE_SELFOVERLAP>
1173.606

> <PUBCHEM_SHAPE_VOLUME>
298

> <PUBCHEM_COORDINATE_TYPE>
2
5
10

$$$$
