304599
  -OEChem-09102009553D

 47 50  0     1  0  0  0  0  0999 V2000
   -1.5659   -0.9852   -2.4545 O   0  0  0  0  0  0  0  0  0  0  0  0
    0.4564    1.7142   -1.0742 O   0  0  0  0  0  0  0  0  0  0  0  0
   -2.9911   -0.6107    0.5108 O   0  0  0  0  0  0  0  0  0  0  0  0
   -1.9171    2.5429    0.1308 O   0  0  0  0  0  0  0  0  0  0  0  0
    2.1501   -2.3102   -0.0819 O   0  0  0  0  0  0  0  0  0  0  0  0
    0.8603   -2.0115    2.0647 O   0  0  0  0  0  0  0  0  0  0  0  0
    4.4064   -0.9920    0.2355 O   0  0  0  0  0  0  0  0  0  0  0  0
   -4.0569    1.2885    1.2810 O   0  0  0  0  0  0  0  0  0  0  0  0
   -0.5808   -0.7882   -0.1562 C   0  0  1  0  0  0  0  0  0  0  0  0
   -0.6176   -0.3250   -1.6017 C   0  0  2  0  0  0  0  0  0  0  0  0
    0.8363   -0.2805    0.4183 C   0  0  2  0  0  0  0  0  0  0  0  0
   -0.7778    1.1541   -1.5333 C   0  0  1  0  0  0  0  0  0  0  0  0
   -1.7542    0.0999    0.4477 C   0  0  1  0  0  0  0  0  0  0  0  0
   -0.1849   -1.0875   -2.8299 C   0  0  0  0  0  0  0  0  0  0  0  0
   -1.9305    1.2911   -0.5283 C   0  0  1  0  0  0  0  0  0  0  0  0
    0.9212    1.2752    0.2152 C   0  0  1  0  0  0  0  0  0  0  0  0
   -0.8457   -2.2882    0.0261 C   0  0  0  0  0  0  0  0  0  0  0  0
    2.0583   -0.9143   -0.3167 C   0  0  1  0  0  0  0  0  0  0  0  0
    0.9523   -0.6141    1.9337 C   0  0  0  0  0  0  0  0  0  0  0  0
    2.3011    1.8517    0.3692 C   0  0  0  0  0  0  0  0  0  0  0  0
    3.3889   -0.3091    0.1201 C   0  0  0  0  0  0  0  0  0  0  0  0
    3.4481    1.1604    0.3553 C   0  0  0  0  0  0  0  0  0  0  0  0
   -4.0639    0.1115    0.9470 C   0  0  0  0  0  0  0  0  0  0  0  0
    4.7918    1.7845    0.5601 C   0  0  0  0  0  0  0  0  0  0  0  0
   -5.2847   -0.7576    0.9610 C   0  0  0  0  0  0  0  0  0  0  0  0
   -1.0221    1.6194   -2.4932 H   0  0  0  0  0  0  0  0  0  0  0  0
   -1.5287    0.4335    1.4639 H   0  0  0  0  0  0  0  0  0  0  0  0
    0.1425   -0.5245   -3.6945 H   0  0  0  0  0  0  0  0  0  0  0  0
    0.2922   -2.0509   -2.7107 H   0  0  0  0  0  0  0  0  0  0  0  0
   -2.8759    1.2087   -1.0796 H   0  0  0  0  0  0  0  0  0  0  0  0
    0.3105    1.7700    0.9794 H   0  0  0  0  0  0  0  0  0  0  0  0
   -1.7316   -2.5935   -0.5456 H   0  0  0  0  0  0  0  0  0  0  0  0
   -0.0443   -2.9254   -0.3475 H   0  0  0  0  0  0  0  0  0  0  0  0
   -1.0806   -2.5532    1.0601 H   0  0  0  0  0  0  0  0  0  0  0  0
    2.0053   -0.7642   -1.3983 H   0  0  0  0  0  0  0  0  0  0  0  0
    0.1592   -0.1523    2.5265 H   0  0  0  0  0  0  0  0  0  0  0  0
    1.9052   -0.2875    2.3611 H   0  0  0  0  0  0  0  0  0  0  0  0
    2.3440    2.9293    0.5178 H   0  0  0  0  0  0  0  0  0  0  0  0
   -1.9278    3.2334   -0.5537 H   0  0  0  0  0  0  0  0  0  0  0  0
    2.3294   -2.4563    0.8617 H   0  0  0  0  0  0  0  0  0  0  0  0
    0.9305   -2.2196    3.0118 H   0  0  0  0  0  0  0  0  0  0  0  0
    5.4338    1.6033   -0.3081 H   0  0  0  0  0  0  0  0  0  0  0  0
    5.2778    1.3644    1.4467 H   0  0  0  0  0  0  0  0  0  0  0  0
    4.7228    2.8683    0.7012 H   0  0  0  0  0  0  0  0  0  0  0  0
   -5.1331   -1.5985    1.6424 H   0  0  0  0  0  0  0  0  0  0  0  0
   -5.4967   -1.1142   -0.0501 H   0  0  0  0  0  0  0  0  0  0  0  0
   -6.1410   -0.1747    1.3119 H   0  0  0  0  0  0  0  0  0  0  0  0
  1 10  1  0  0  0  0
  1 14  1  0  0  0  0
  2 12  1  0  0  0  0
  2 16  1  0  0  0  0
  3 13  1  0  0  0  0
  3 23  1  0  0  0  0
  4 15  1  0  0  0  0
  4 39  1  0  0  0  0
  5 18  1  0  0  0  0
  5 40  1  0  0  0  0
  6 19  1  0  0  0  0
  6 41  1  0  0  0  0
  7 21  2  0  0  0  0
  8 23  2  0  0  0  0
  9 10  1  0  0  0  0
  9 11  1  0  0  0  0
  9 13  1  0  0  0  0
  9 17  1  0  0  0  0
 10 12  1  0  0  0  0
 10 14  1  0  0  0  0
 11 16  1  0  0  0  0
 11 18  1  0  0  0  0
 11 19  1  0  0  0  0
 12 15  1  0  0  0  0
 12 26  1  0  0  0  0
 13 15  1  0  0  0  0
 13 27  1  0  0  0  0
 14 28  1  0  0  0  0
 14 29  1  0  0  0  0
 15 30  1  0  0  0  0
 16 20  1  0  0  0  0
 16 31  1  0  0  0  0
 17 32  1  0  0  0  0
 17 33  1  0  0  0  0
 17 34  1  0  0  0  0
 18 21  1  0  0  0  0
 18 35  1  0  0  0  0
 19 36  1  0  0  0  0
 19 37  1  0  0  0  0
 20 22  2  0  0  0  0
 20 38  1  0  0  0  0
 21 22  1  0  0  0  0
 22 24  1  0  0  0  0
 23 25  1  0  0  0  0
 24 42  1  0  0  0  0
 24 43  1  0  0  0  0
 24 44  1  0  0  0  0
 25 45  1  0  0  0  0
 25 46  1  0  0  0  0
 25 47  1  0  0  0  0
M  END
> <PUBCHEM_COMPOUND_CID>
304599

> <PUBCHEM_CONFORMER_RMSD>
0.8

> <PUBCHEM_CONFORMER_DIVERSEORDER>
1

> <PUBCHEM_MMFF94_PARTIAL_CHARGES>
29
1 -0.3
10 -0.04
12 0.38
13 0.28
14 -0.05
15 0.28
16 0.42
18 0.34
19 0.28
2 -0.56
20 -0.29
21 0.49
22 -0.12
23 0.66
24 0.14
25 0.06
28 0.1
29 0.1
3 -0.43
38 0.15
39 0.4
4 -0.68
40 0.4
41 0.4
5 -0.68
6 -0.68
7 -0.57
8 -0.57
9 0.09

> <PUBCHEM_EFFECTIVE_ROTOR_COUNT>
4.2

> <PUBCHEM_PHARMACOPHORE_FEATURES>
12
1 1 acceptor
1 2 acceptor
1 4 acceptor
1 4 donor
1 5 acceptor
1 5 donor
1 6 acceptor
1 6 donor
1 7 acceptor
1 8 acceptor
6 11 16 18 20 21 22 rings
8 2 9 10 11 12 13 15 16 rings

> <PUBCHEM_HEAVY_ATOM_COUNT>
25

> <PUBCHEM_ATOM_DEF_STEREO_COUNT>
8

> <PUBCHEM_ATOM_UDEF_STEREO_COUNT>
0

> <PUBCHEM_BOND_DEF_STEREO_COUNT>
0

> <PUBCHEM_BOND_UDEF_STEREO_COUNT>
0

> <PUBCHEM_ISOTOPIC_ATOM_COUNT>
0

> <PUBCHEM_COMPONENT_COUNT>
1

> <PUBCHEM_CACTVS_TAUTO_COUNT>
8

> <PUBCHEM_CONFORMER_ID>
0004A5D700000001

> <PUBCHEM_MMFF94_ENERGY>
98.0204

> <PUBCHEM_FEATURE_SELFOVERLAP>
60.963

> <PUBCHEM_SHAPE_FINGERPRINT>
10863032 1 18118967996638644160
10948715 1 17917999398752706809
11132069 177 17458062702627957194
11578080 2 16951961743906404261
11961588 58 15769483339573329880
12011746 2 18187083936397059031
12403814 3 18342729736872317533
12592029 89 17703522012177331750
12892183 10 18413114961129692305
13140716 1 17972882745840430632
13583140 156 18190734245981235517
14142880 1 16018334938667912596
14223421 5 18041835091344662969
14787075 74 18189339137619387361
14863182 85 17750256788692712923
15163728 17 16772421489659167041
15209289 33 18260550021941394266
15309172 13 17846213328537199013
16752209 62 16271628101002794703
16945 1 18411142467128394396
17492 54 14997725085766452502
1813 80 16443350904996971911
18222031 100 16008754640567573483
19010151 120 14562533976634109013
20600515 1 16153718638803605785
20626108 58 15358553010981028353
21330990 113 17530966869090143138
229495 10 18269825450193076469
23419403 2 17533200986882602047
23557571 272 15502642755106282423
23559900 14 17314507019994699910
2748010 2 18115574938210180532
3286 77 18114184090682541986
4340502 62 18342183309927265563
5845 1 13645037746009782839
9999458 23 17968103065788931089

> <PUBCHEM_SHAPE_MULTIPOLES>
467.53
7.29
2.25
1.88
1.37
0.07
0.92
1.81
-3.45
-0.62
-0.03
0.81
-0.76
-0.18

> <PUBCHEM_SHAPE_SELFOVERLAP>
1018.568

> <PUBCHEM_SHAPE_VOLUME>
248

> <PUBCHEM_COORDINATE_TYPE>
2
5
10

$$$$
