5316774
  -OEChem-09102010213D

 52 55  0     1  0  0  0  0  0999 V2000
    2.2898   -0.2874   -0.6437 O   0  0  0  0  0  0  0  0  0  0  0  0
    1.4215    0.4978    1.3747 O   0  0  0  0  0  0  0  0  0  0  0  0
    5.2636   -2.3562    1.2911 O   0  0  0  0  0  0  0  0  0  0  0  0
    5.4955   -1.8156   -1.5390 O   0  0  0  0  0  0  0  0  0  0  0  0
    3.8625   -0.1501    2.6514 O   0  0  0  0  0  0  0  0  0  0  0  0
    2.1716    0.0584   -3.3681 O   0  0  0  0  0  0  0  0  0  0  0  0
   -2.9431    1.6797   -0.4091 O   0  0  0  0  0  0  0  0  0  0  0  0
   -0.5690   -1.2227    1.2287 O   0  0  0  0  0  0  0  0  0  0  0  0
    0.5432    4.8873   -0.2075 O   0  0  0  0  0  0  0  0  0  0  0  0
    4.6779   -1.2224    0.6493 C   0  0  1  0  0  0  0  0  0  0  0  0
    4.3059   -1.6265   -0.7774 C   0  0  1  0  0  0  0  0  0  0  0  0
    3.4468   -0.7720    1.4358 C   0  0  2  0  0  0  0  0  0  0  0  0
    3.4465   -0.5476   -1.4408 C   0  0  1  0  0  0  0  0  0  0  0  0
    2.6176    0.2368    0.6409 C   0  0  1  0  0  0  0  0  0  0  0  0
    2.9653   -0.9794   -2.8225 C   0  0  0  0  0  0  0  0  0  0  0  0
    0.5372    1.3761    0.8249 C   0  0  0  0  0  0  0  0  0  0  0  0
   -0.7741    1.0202    0.4988 C   0  0  0  0  0  0  0  0  0  0  0  0
   -1.6431    1.9551   -0.0631 C   0  0  0  0  0  0  0  0  0  0  0  0
    0.9764    2.6781    0.5848 C   0  0  0  0  0  0  0  0  0  0  0  0
   -1.2653   -0.3451    0.7403 C   0  0  0  0  0  0  0  0  0  0  0  0
   -2.6602   -0.6198    0.3631 C   0  0  0  0  0  0  0  0  0  0  0  0
   -3.4197    0.4105   -0.1907 C   0  0  0  0  0  0  0  0  0  0  0  0
    0.1110    3.6169    0.0229 C   0  0  0  0  0  0  0  0  0  0  0  0
   -1.1976    3.2570   -0.3010 C   0  0  0  0  0  0  0  0  0  0  0  0
   -3.2160   -1.8874    0.5551 C   0  0  0  0  0  0  0  0  0  0  0  0
   -4.5418   -2.1198    0.1882 C   0  0  0  0  0  0  0  0  0  0  0  0
   -4.7462    0.1717   -0.5559 C   0  0  0  0  0  0  0  0  0  0  0  0
   -5.3056   -1.0925   -0.3661 C   0  0  0  0  0  0  0  0  0  0  0  0
   -5.1235   -3.4794    0.3992 C   0  0  0  0  0  0  0  0  0  0  0  0
   -6.7269   -1.3215   -0.7644 C   0  0  0  0  0  0  0  0  0  0  0  0
    5.4452   -0.4385    0.6434 H   0  0  0  0  0  0  0  0  0  0  0  0
    3.7735   -2.5853   -0.7573 H   0  0  0  0  0  0  0  0  0  0  0  0
    2.8394   -1.6430    1.7117 H   0  0  0  0  0  0  0  0  0  0  0  0
    4.0084    0.3894   -1.5554 H   0  0  0  0  0  0  0  0  0  0  0  0
    3.1909    1.1665    0.5311 H   0  0  0  0  0  0  0  0  0  0  0  0
    2.3450   -1.8802   -2.7673 H   0  0  0  0  0  0  0  0  0  0  0  0
    3.8012   -1.1677   -3.5021 H   0  0  0  0  0  0  0  0  0  0  0  0
    5.4694   -2.0974    2.2057 H   0  0  0  0  0  0  0  0  0  0  0  0
    5.9695   -0.9672   -1.5716 H   0  0  0  0  0  0  0  0  0  0  0  0
    3.0604    0.1378    3.1201 H   0  0  0  0  0  0  0  0  0  0  0  0
    1.4364    0.2215   -2.7526 H   0  0  0  0  0  0  0  0  0  0  0  0
    1.9854    2.9800    0.8539 H   0  0  0  0  0  0  0  0  0  0  0  0
   -1.8687    3.9922   -0.7384 H   0  0  0  0  0  0  0  0  0  0  0  0
   -2.6231   -2.6895    0.9869 H   0  0  0  0  0  0  0  0  0  0  0  0
   -5.3362    0.9770   -0.9874 H   0  0  0  0  0  0  0  0  0  0  0  0
   -5.4419   -3.9148   -0.5535 H   0  0  0  0  0  0  0  0  0  0  0  0
   -4.3958   -4.1688    0.8414 H   0  0  0  0  0  0  0  0  0  0  0  0
   -5.9781   -3.4316    1.0819 H   0  0  0  0  0  0  0  0  0  0  0  0
   -7.1826   -0.4168   -1.1819 H   0  0  0  0  0  0  0  0  0  0  0  0
   -6.7917   -2.0989   -1.5325 H   0  0  0  0  0  0  0  0  0  0  0  0
   -7.3280   -1.6146    0.1025 H   0  0  0  0  0  0  0  0  0  0  0  0
    1.4712    4.9615    0.0739 H   0  0  0  0  0  0  0  0  0  0  0  0
  1 13  1  0  0  0  0
  1 14  1  0  0  0  0
  2 14  1  0  0  0  0
  2 16  1  0  0  0  0
  3 10  1  0  0  0  0
  3 38  1  0  0  0  0
  4 11  1  0  0  0  0
  4 39  1  0  0  0  0
  5 12  1  0  0  0  0
  5 40  1  0  0  0  0
  6 15  1  0  0  0  0
  6 41  1  0  0  0  0
  7 18  1  0  0  0  0
  7 22  1  0  0  0  0
  8 20  2  0  0  0  0
  9 23  1  0  0  0  0
  9 52  1  0  0  0  0
 10 11  1  0  0  0  0
 10 12  1  0  0  0  0
 10 31  1  0  0  0  0
 11 13  1  0  0  0  0
 11 32  1  0  0  0  0
 12 14  1  0  0  0  0
 12 33  1  0  0  0  0
 13 15  1  0  0  0  0
 13 34  1  0  0  0  0
 14 35  1  0  0  0  0
 15 36  1  0  0  0  0
 15 37  1  0  0  0  0
 16 17  1  0  0  0  0
 16 19  2  0  0  0  0
 17 18  2  0  0  0  0
 17 20  1  0  0  0  0
 18 24  1  0  0  0  0
 19 23  1  0  0  0  0
 19 42  1  0  0  0  0
 20 21  1  0  0  0  0
 21 22  2  0  0  0  0
 21 25  1  0  0  0  0
 22 27  1  0  0  0  0
 23 24  2  0  0  0  0
 24 43  1  0  0  0  0
 25 26  2  0  0  0  0
 25 44  1  0  0  0  0
 26 28  1  0  0  0  0
 26 29  1  0  0  0  0
 27 28  2  0  0  0  0
 27 45  1  0  0  0  0
 28 30  1  0  0  0  0
 29 46  1  0  0  0  0
 29 47  1  0  0  0  0
 29 48  1  0  0  0  0
 30 49  1  0  0  0  0
 30 50  1  0  0  0  0
 30 51  1  0  0  0  0
M  END
> <PUBCHEM_COMPOUND_CID>
5316774

> <PUBCHEM_CONFORMER_RMSD>
0.8

> <PUBCHEM_CONFORMER_DIVERSEORDER>
1
37
34
51
22
35
13
47
3
41
26
2
15
44
33
23
48
49
54
39
8
4
40
5
36
29
17
52
30
20
18
43
42
16
6
31
32
53
21
25
46
45
50
14
28
24
11
19
27
10
38
9
7
12

> <PUBCHEM_MMFF94_PARTIAL_CHARGES>
39
1 -0.56
10 0.28
11 0.28
12 0.28
13 0.28
14 0.56
15 0.28
16 0.08
17 0.09
18 0.08
19 -0.15
2 -0.36
20 0.4
21 0.09
22 0.08
23 0.08
24 -0.15
25 -0.15
26 -0.14
27 -0.15
28 -0.14
29 0.14
3 -0.68
30 0.14
38 0.4
39 0.4
4 -0.68
40 0.4
41 0.4
42 0.15
43 0.15
44 0.15
45 0.15
5 -0.68
52 0.45
6 -0.68
7 -0.17
8 -0.57
9 -0.53

> <PUBCHEM_EFFECTIVE_ROTOR_COUNT>
4.2

> <PUBCHEM_PHARMACOPHORE_FEATURES>
17
1 1 acceptor
1 2 acceptor
1 3 acceptor
1 3 donor
1 4 acceptor
1 4 donor
1 5 acceptor
1 5 donor
1 6 acceptor
1 6 donor
1 7 acceptor
1 8 acceptor
1 9 donor
6 1 10 11 12 13 14 rings
6 16 17 18 19 23 24 rings
6 21 22 25 26 27 28 rings
6 7 17 18 20 21 22 rings

> <PUBCHEM_HEAVY_ATOM_COUNT>
30

> <PUBCHEM_ATOM_DEF_STEREO_COUNT>
5

> <PUBCHEM_ATOM_UDEF_STEREO_COUNT>
0

> <PUBCHEM_BOND_DEF_STEREO_COUNT>
0

> <PUBCHEM_BOND_UDEF_STEREO_COUNT>
0

> <PUBCHEM_ISOTOPIC_ATOM_COUNT>
0

> <PUBCHEM_COMPONENT_COUNT>
1

> <PUBCHEM_CACTVS_TAUTO_COUNT>
5

> <PUBCHEM_CONFORMER_ID>
005120A600000001

> <PUBCHEM_MMFF94_ENERGY>
99.4642

> <PUBCHEM_FEATURE_SELFOVERLAP>
86.406

> <PUBCHEM_SHAPE_FINGERPRINT>
10622 236 17388800995199110314
10721379 63 18191882329531935373
11578080 2 17241860199789580004
11582403 64 16039354917269542760
11828532 37 18188773985060393159
12166972 35 17676485029808502038
12342043 65 17703228400235043450
12363563 72 18412268332617352824
12422481 6 17418086641901959095
12553582 1 18334867103668429571
12788726 201 18115878399124563896
13782708 43 17702953513748968430
14068700 675 18186795838955298394
14294032 229 17754455660522768901
14790565 3 17619065028414704169
14848178 96 8574169253511123083
14866123 147 18267866086972835473
15324884 4 17557680514364858808
15475509 8 18270410387012669545
15484559 13 15456219630721198663
16752209 62 18188209784621772322
17349148 13 17967819297284113530
17492 89 18121213449361662899
1813 80 18343024401989110153
20403669 9 18343300370844186119
20775438 99 17688019134776685835
21279426 13 18262222397003501357
21307412 95 18341612595221794367
2260408 40 17844547675795242947
23557571 272 18200875054556510496
23559900 14 18265039405685937897
25222932 49 18194393622742805998
3004659 81 17894343376148580954
335352 9 18335972117993479501
4280585 95 18409726261686442336
463206 1 18333448759428755739
6669772 16 17693950987350476308
86090 222 17059794263715764254
9709674 26 17973719470600985347

> <PUBCHEM_SHAPE_MULTIPOLES>
564.56
12.47
4.01
1.9
6.44
4.41
1.16
-13.68
1.53
0.75
-0.04
-3.37
-0.78
0.76

> <PUBCHEM_SHAPE_SELFOVERLAP>
1240.799

> <PUBCHEM_SHAPE_VOLUME>
302.7

> <PUBCHEM_COORDINATE_TYPE>
2
5
10

$$$$
