52927148
  -OEChem-09102006312D

140139  0     1  0  0  0  0  0999 V2000
    6.8671   -5.1900    0.0000 P   0  0  3  0  0  0  0  0  0  0  0  0
   10.3312   -3.1900    0.0000 O   0  0  0  0  0  0  0  0  0  0  0  0
    9.4651   -1.6900    0.0000 O   0  0  0  0  0  0  0  0  0  0  0  0
   10.3312   -5.1900    0.0000 O   0  0  0  0  0  0  0  0  0  0  0  0
    7.7331   -4.6900    0.0000 O   0  0  0  0  0  0  0  0  0  0  0  0
   11.1972   -3.6900    0.0000 O   0  0  0  0  0  0  0  0  0  0  0  0
    6.0010   -5.6900    0.0000 O   0  0  0  0  0  0  0  0  0  0  0  0
    6.3671   -4.3240    0.0000 O   0  0  0  0  0  0  0  0  0  0  0  0
    7.3671   -6.0560    0.0000 O   0  0  0  0  0  0  0  0  0  0  0  0
    4.2690   -6.6900    0.0000 O   0  0  0  0  0  0  0  0  0  0  0  0
    2.5369   -5.6900    0.0000 O   0  0  0  0  0  0  0  0  0  0  0  0
   14.6613    4.3100    0.0000 C   0  0  0  0  0  0  0  0  0  0  0  0
   13.7953    3.8100    0.0000 C   0  0  0  0  0  0  0  0  0  0  0  0
   14.6613    5.3100    0.0000 C   0  0  0  0  0  0  0  0  0  0  0  0
   13.7953    2.8100    0.0000 C   0  0  0  0  0  0  0  0  0  0  0  0
   15.5273    5.8100    0.0000 C   0  0  0  0  0  0  0  0  0  0  0  0
   12.9292    2.3100    0.0000 C   0  0  0  0  0  0  0  0  0  0  0  0
   15.5273    6.8100    0.0000 C   0  0  0  0  0  0  0  0  0  0  0  0
   12.9292    1.3100    0.0000 C   0  0  0  0  0  0  0  0  0  0  0  0
   16.3933    7.3100    0.0000 C   0  0  0  0  0  0  0  0  0  0  0  0
   12.0632    0.8100    0.0000 C   0  0  0  0  0  0  0  0  0  0  0  0
   16.3933    8.3100    0.0000 C   0  0  0  0  0  0  0  0  0  0  0  0
   12.0632   -0.1900    0.0000 C   0  0  0  0  0  0  0  0  0  0  0  0
   17.2594    8.8100    0.0000 C   0  0  0  0  0  0  0  0  0  0  0  0
   11.1972   -0.6900    0.0000 C   0  0  0  0  0  0  0  0  0  0  0  0
   17.2594    9.8100    0.0000 C   0  0  0  0  0  0  0  0  0  0  0  0
   11.1972   -1.6900    0.0000 C   0  0  0  0  0  0  0  0  0  0  0  0
   18.1254   10.3100    0.0000 C   0  0  0  0  0  0  0  0  0  0  0  0
   10.3312   -2.1900    0.0000 C   0  0  0  0  0  0  0  0  0  0  0  0
    9.4651   -3.6900    0.0000 C   0  0  0  0  0  0  0  0  0  0  0  0
    9.4651   -4.6900    0.0000 C   0  0  2  0  0  0  0  0  0  0  0  0
   12.9292   -4.6900    0.0000 C   0  0  0  0  0  0  0  0  0  0  0  0
   13.7953   -5.1900    0.0000 C   0  0  0  0  0  0  0  0  0  0  0  0
    8.5991   -5.1900    0.0000 C   0  0  0  0  0  0  0  0  0  0  0  0
   12.0632   -5.1900    0.0000 C   0  0  0  0  0  0  0  0  0  0  0  0
   14.6613   -4.6900    0.0000 C   0  0  0  0  0  0  0  0  0  0  0  0
   11.1972   -4.6900    0.0000 C   0  0  0  0  0  0  0  0  0  0  0  0
   15.5273   -5.1900    0.0000 C   0  0  0  0  0  0  0  0  0  0  0  0
   16.3933   -4.6900    0.0000 C   0  0  0  0  0  0  0  0  0  0  0  0
   17.2594   -5.1900    0.0000 C   0  0  0  0  0  0  0  0  0  0  0  0
   12.9292   -7.6900    0.0000 C   0  0  0  0  0  0  0  0  0  0  0  0
   12.0632   -8.1900    0.0000 C   0  0  0  0  0  0  0  0  0  0  0  0
   17.2594   -6.1900    0.0000 C   0  0  0  0  0  0  0  0  0  0  0  0
   13.7953   -8.1900    0.0000 C   0  0  0  0  0  0  0  0  0  0  0  0
   11.1972   -7.6900    0.0000 C   0  0  0  0  0  0  0  0  0  0  0  0
    5.1350   -5.1900    0.0000 C   0  0  0  0  0  0  0  0  0  0  0  0
    4.2690   -5.6900    0.0000 C   0  0  2  0  0  0  0  0  0  0  0  0
   18.1254   -6.6900    0.0000 C   0  0  0  0  0  0  0  0  0  0  0  0
   13.7953   -9.1900    0.0000 C   0  0  0  0  0  0  0  0  0  0  0  0
   10.3312   -8.1900    0.0000 C   0  0  0  0  0  0  0  0  0  0  0  0
    3.4030   -5.1900    0.0000 C   0  0  0  0  0  0  0  0  0  0  0  0
   14.6613   -9.6900    0.0000 C   0  0  0  0  0  0  0  0  0  0  0  0
   18.1254   -7.6900    0.0000 C   0  0  0  0  0  0  0  0  0  0  0  0
   15.5273   -9.1900    0.0000 C   0  0  0  0  0  0  0  0  0  0  0  0
   17.2594   -8.1900    0.0000 C   0  0  0  0  0  0  0  0  0  0  0  0
   16.3933   -9.6900    0.0000 C   0  0  0  0  0  0  0  0  0  0  0  0
   17.2594   -9.1900    0.0000 C   0  0  0  0  0  0  0  0  0  0  0  0
   14.8733    3.7274    0.0000 H   0  0  0  0  0  0  0  0  0  0  0  0
   15.2719    4.4177    0.0000 H   0  0  0  0  0  0  0  0  0  0  0  0
   13.5832    4.3926    0.0000 H   0  0  0  0  0  0  0  0  0  0  0  0
   13.1847    3.7023    0.0000 H   0  0  0  0  0  0  0  0  0  0  0  0
   14.4492    5.8926    0.0000 H   0  0  0  0  0  0  0  0  0  0  0  0
   14.0507    5.2023    0.0000 H   0  0  0  0  0  0  0  0  0  0  0  0
   14.0073    2.2274    0.0000 H   0  0  0  0  0  0  0  0  0  0  0  0
   14.4058    2.9177    0.0000 H   0  0  0  0  0  0  0  0  0  0  0  0
   15.7394    5.2274    0.0000 H   0  0  0  0  0  0  0  0  0  0  0  0
   16.1379    5.9177    0.0000 H   0  0  0  0  0  0  0  0  0  0  0  0
   12.7172    2.8926    0.0000 H   0  0  0  0  0  0  0  0  0  0  0  0
   12.3187    2.2023    0.0000 H   0  0  0  0  0  0  0  0  0  0  0  0
   15.3153    7.3926    0.0000 H   0  0  0  0  0  0  0  0  0  0  0  0
   14.9167    6.7023    0.0000 H   0  0  0  0  0  0  0  0  0  0  0  0
   13.1413    0.7274    0.0000 H   0  0  0  0  0  0  0  0  0  0  0  0
   13.5398    1.4177    0.0000 H   0  0  0  0  0  0  0  0  0  0  0  0
   16.6054    6.7274    0.0000 H   0  0  0  0  0  0  0  0  0  0  0  0
   17.0039    7.4177    0.0000 H   0  0  0  0  0  0  0  0  0  0  0  0
   11.8512    1.3926    0.0000 H   0  0  0  0  0  0  0  0  0  0  0  0
   11.4526    0.7023    0.0000 H   0  0  0  0  0  0  0  0  0  0  0  0
   16.1813    8.8926    0.0000 H   0  0  0  0  0  0  0  0  0  0  0  0
   15.7828    8.2023    0.0000 H   0  0  0  0  0  0  0  0  0  0  0  0
   12.2753   -0.7726    0.0000 H   0  0  0  0  0  0  0  0  0  0  0  0
   12.6738   -0.0823    0.0000 H   0  0  0  0  0  0  0  0  0  0  0  0
   17.4714    8.2274    0.0000 H   0  0  0  0  0  0  0  0  0  0  0  0
   17.8699    8.9177    0.0000 H   0  0  0  0  0  0  0  0  0  0  0  0
   10.9851   -0.1074    0.0000 H   0  0  0  0  0  0  0  0  0  0  0  0
   10.5866   -0.7977    0.0000 H   0  0  0  0  0  0  0  0  0  0  0  0
   17.0473   10.3926    0.0000 H   0  0  0  0  0  0  0  0  0  0  0  0
   16.6488    9.7023    0.0000 H   0  0  0  0  0  0  0  0  0  0  0  0
   11.4092   -2.2726    0.0000 H   0  0  0  0  0  0  0  0  0  0  0  0
   11.8078   -1.5823    0.0000 H   0  0  0  0  0  0  0  0  0  0  0  0
   18.4354    9.7731    0.0000 H   0  0  0  0  0  0  0  0  0  0  0  0
   18.6623   10.6200    0.0000 H   0  0  0  0  0  0  0  0  0  0  0  0
   17.8154   10.8469    0.0000 H   0  0  0  0  0  0  0  0  0  0  0  0
    9.2531   -3.1074    0.0000 H   0  0  0  0  0  0  0  0  0  0  0  0
    8.8546   -3.7977    0.0000 H   0  0  0  0  0  0  0  0  0  0  0  0
   10.0021   -4.3800    0.0000 H   0  0  0  0  0  0  0  0  0  0  0  0
   13.3278   -4.2150    0.0000 H   0  0  0  0  0  0  0  0  0  0  0  0
   12.5307   -4.2150    0.0000 H   0  0  0  0  0  0  0  0  0  0  0  0
   13.3967   -5.6650    0.0000 H   0  0  0  0  0  0  0  0  0  0  0  0
   14.1938   -5.6650    0.0000 H   0  0  0  0  0  0  0  0  0  0  0  0
    8.2006   -5.6650    0.0000 H   0  0  0  0  0  0  0  0  0  0  0  0
    8.9976   -5.6650    0.0000 H   0  0  0  0  0  0  0  0  0  0  0  0
   11.6647   -5.6650    0.0000 H   0  0  0  0  0  0  0  0  0  0  0  0
   12.4617   -5.6650    0.0000 H   0  0  0  0  0  0  0  0  0  0  0  0
   15.0598   -4.2150    0.0000 H   0  0  0  0  0  0  0  0  0  0  0  0
   14.2628   -4.2150    0.0000 H   0  0  0  0  0  0  0  0  0  0  0  0
   15.1288   -5.6650    0.0000 H   0  0  0  0  0  0  0  0  0  0  0  0
   15.9258   -5.6650    0.0000 H   0  0  0  0  0  0  0  0  0  0  0  0
   16.3933   -4.0700    0.0000 H   0  0  0  0  0  0  0  0  0  0  0  0
   17.7963   -4.8800    0.0000 H   0  0  0  0  0  0  0  0  0  0  0  0
   13.3278   -7.2150    0.0000 H   0  0  0  0  0  0  0  0  0  0  0  0
   12.5307   -7.2150    0.0000 H   0  0  0  0  0  0  0  0  0  0  0  0
   11.6647   -8.6649    0.0000 H   0  0  0  0  0  0  0  0  0  0  0  0
   12.4617   -8.6649    0.0000 H   0  0  0  0  0  0  0  0  0  0  0  0
   16.6488   -6.0823    0.0000 H   0  0  0  0  0  0  0  0  0  0  0  0
   17.0473   -6.7726    0.0000 H   0  0  0  0  0  0  0  0  0  0  0  0
   14.4058   -8.2977    0.0000 H   0  0  0  0  0  0  0  0  0  0  0  0
   14.0073   -7.6074    0.0000 H   0  0  0  0  0  0  0  0  0  0  0  0
   11.5957   -7.2150    0.0000 H   0  0  0  0  0  0  0  0  0  0  0  0
   10.7987   -7.2150    0.0000 H   0  0  0  0  0  0  0  0  0  0  0  0
    5.5335   -4.7150    0.0000 H   0  0  0  0  0  0  0  0  0  0  0  0
    4.7365   -4.7150    0.0000 H   0  0  0  0  0  0  0  0  0  0  0  0
    4.8059   -6.0000    0.0000 H   0  0  0  0  0  0  0  0  0  0  0  0
    6.6771   -3.7870    0.0000 H   0  0  0  0  0  0  0  0  0  0  0  0
   13.2583   -9.5000    0.0000 H   0  0  0  0  0  0  0  0  0  0  0  0
   18.6623   -6.3800    0.0000 H   0  0  0  0  0  0  0  0  0  0  0  0
   10.0212   -7.6531    0.0000 H   0  0  0  0  0  0  0  0  0  0  0  0
    9.7942   -8.5000    0.0000 H   0  0  0  0  0  0  0  0  0  0  0  0
   10.6412   -8.7269    0.0000 H   0  0  0  0  0  0  0  0  0  0  0  0
    3.8015   -4.7150    0.0000 H   0  0  0  0  0  0  0  0  0  0  0  0
    3.0044   -4.7150    0.0000 H   0  0  0  0  0  0  0  0  0  0  0  0
   14.6613  -10.3100    0.0000 H   0  0  0  0  0  0  0  0  0  0  0  0
   18.6623   -8.0000    0.0000 H   0  0  0  0  0  0  0  0  0  0  0  0
   15.9258   -8.7150    0.0000 H   0  0  0  0  0  0  0  0  0  0  0  0
   15.1288   -8.7150    0.0000 H   0  0  0  0  0  0  0  0  0  0  0  0
   17.0473   -7.6074    0.0000 H   0  0  0  0  0  0  0  0  0  0  0  0
   16.6488   -8.2977    0.0000 H   0  0  0  0  0  0  0  0  0  0  0  0
   16.3933  -10.3100    0.0000 H   0  0  0  0  0  0  0  0  0  0  0  0
   17.7963   -9.5000    0.0000 H   0  0  0  0  0  0  0  0  0  0  0  0
    3.7320   -7.0000    0.0000 H   0  0  0  0  0  0  0  0  0  0  0  0
    2.0000   -5.3800    0.0000 H   0  0  0  0  0  0  0  0  0  0  0  0
  1  5  1  0  0  0  0
  1  7  1  0  0  0  0
  1  8  1  0  0  0  0
  1  9  2  0  0  0  0
  2 29  1  0  0  0  0
  2 30  1  0  0  0  0
  3 29  2  0  0  0  0
 31  4  1  1  0  0  0
  4 37  1  0  0  0  0
  5 34  1  0  0  0  0
  6 37  2  0  0  0  0
  7 46  1  0  0  0  0
  8123  1  0  0  0  0
 47 10  1  1  0  0  0
 10139  1  0  0  0  0
 11 51  1  0  0  0  0
 11140  1  0  0  0  0
 12 13  1  0  0  0  0
 12 14  1  0  0  0  0
 12 58  1  0  0  0  0
 12 59  1  0  0  0  0
 13 15  1  0  0  0  0
 13 60  1  0  0  0  0
 13 61  1  0  0  0  0
 14 16  1  0  0  0  0
 14 62  1  0  0  0  0
 14 63  1  0  0  0  0
 15 17  1  0  0  0  0
 15 64  1  0  0  0  0
 15 65  1  0  0  0  0
 16 18  1  0  0  0  0
 16 66  1  0  0  0  0
 16 67  1  0  0  0  0
 17 19  1  0  0  0  0
 17 68  1  0  0  0  0
 17 69  1  0  0  0  0
 18 20  1  0  0  0  0
 18 70  1  0  0  0  0
 18 71  1  0  0  0  0
 19 21  1  0  0  0  0
 19 72  1  0  0  0  0
 19 73  1  0  0  0  0
 20 22  1  0  0  0  0
 20 74  1  0  0  0  0
 20 75  1  0  0  0  0
 21 23  1  0  0  0  0
 21 76  1  0  0  0  0
 21 77  1  0  0  0  0
 22 24  1  0  0  0  0
 22 78  1  0  0  0  0
 22 79  1  0  0  0  0
 23 25  1  0  0  0  0
 23 80  1  0  0  0  0
 23 81  1  0  0  0  0
 24 26  1  0  0  0  0
 24 82  1  0  0  0  0
 24 83  1  0  0  0  0
 25 27  1  0  0  0  0
 25 84  1  0  0  0  0
 25 85  1  0  0  0  0
 26 28  1  0  0  0  0
 26 86  1  0  0  0  0
 26 87  1  0  0  0  0
 27 29  1  0  0  0  0
 27 88  1  0  0  0  0
 27 89  1  0  0  0  0
 28 90  1  0  0  0  0
 28 91  1  0  0  0  0
 28 92  1  0  0  0  0
 30 31  1  0  0  0  0
 30 93  1  0  0  0  0
 30 94  1  0  0  0  0
 31 34  1  0  0  0  0
 31 95  1  0  0  0  0
 32 33  1  0  0  0  0
 32 35  1  0  0  0  0
 32 96  1  0  0  0  0
 32 97  1  0  0  0  0
 33 36  1  0  0  0  0
 33 98  1  0  0  0  0
 33 99  1  0  0  0  0
 34100  1  0  0  0  0
 34101  1  0  0  0  0
 35 37  1  0  0  0  0
 35102  1  0  0  0  0
 35103  1  0  0  0  0
 36 38  1  0  0  0  0
 36104  1  0  0  0  0
 36105  1  0  0  0  0
 38 39  1  0  0  0  0
 38106  1  0  0  0  0
 38107  1  0  0  0  0
 39 40  2  0  0  0  0
 39108  1  0  0  0  0
 40 43  1  0  0  0  0
 40109  1  0  0  0  0
 41 42  1  0  0  0  0
 41 44  1  0  0  0  0
 41110  1  0  0  0  0
 41111  1  0  0  0  0
 42 45  1  0  0  0  0
 42112  1  0  0  0  0
 42113  1  0  0  0  0
 43 48  1  0  0  0  0
 43114  1  0  0  0  0
 43115  1  0  0  0  0
 44 49  1  0  0  0  0
 44116  1  0  0  0  0
 44117  1  0  0  0  0
 45 50  1  0  0  0  0
 45118  1  0  0  0  0
 45119  1  0  0  0  0
 46 47  1  0  0  0  0
 46120  1  0  0  0  0
 46121  1  0  0  0  0
 47 51  1  0  0  0  0
 47122  1  0  0  0  0
 48 53  2  0  0  0  0
 48125  1  0  0  0  0
 49 52  2  0  0  0  0
 49124  1  0  0  0  0
 50126  1  0  0  0  0
 50127  1  0  0  0  0
 50128  1  0  0  0  0
 51129  1  0  0  0  0
 51130  1  0  0  0  0
 52 54  1  0  0  0  0
 52131  1  0  0  0  0
 53 55  1  0  0  0  0
 53132  1  0  0  0  0
 54 56  1  0  0  0  0
 54133  1  0  0  0  0
 54134  1  0  0  0  0
 55 57  1  0  0  0  0
 55135  1  0  0  0  0
 55136  1  0  0  0  0
 56 57  2  0  0  0  0
 56137  1  0  0  0  0
 57138  1  0  0  0  0
M  END
> <PUBCHEM_COMPOUND_CID>
52927148

> <PUBCHEM_COMPOUND_CANONICALIZED>
1

> <PUBCHEM_CACTVS_COMPLEXITY>
1090

> <PUBCHEM_CACTVS_HBOND_ACCEPTOR>
10

> <PUBCHEM_CACTVS_HBOND_DONOR>
3

> <PUBCHEM_CACTVS_ROTATABLE_BOND>
44

> <PUBCHEM_CACTVS_SUBSKEYS>
AAADcfB8PAIAAAAAAAAAAAAAAAAAAAAAAAAAAAAAAAAAAAAAAAAAGgAACCAACBSggAICCAAABxCIQCDSCIAAAAAgAAAICAEAAAgBEBIAAQACQAAFgAALAAOIyKCAAAAAAAAAAAAAAAAAAAAAAAAAAAAAAA==

> <PUBCHEM_IUPAC_OPENEYE_NAME>
[(1R)-1-[[[(2S)-2,3-dihydroxypropoxy]-hydroxy-phosphoryl]oxymethyl]-2-octadecanoyloxy-ethyl] (7Z,10Z,13Z,16Z)-docosa-7,10,13,16-tetraenoate

> <PUBCHEM_IUPAC_CAS_NAME>
(7Z,10Z,13Z,16Z)-docosa-7,10,13,16-tetraenoic acid [(2R)-1-[[(2S)-2,3-dihydroxypropoxy]-hydroxyphosphoryl]oxy-3-(1-oxooctadecoxy)propan-2-yl] ester

> <PUBCHEM_IUPAC_NAME_MARKUP>
[(2<I>R</I>)-1-[[(2<I>S</I>)-2,3-dihydroxypropoxy]-hydroxyphosphoryl]oxy-3-octadecanoyloxypropan-2-yl] (7<I>Z</I>,10<I>Z</I>,13<I>Z</I>,16<I>Z</I>)-docosa-7,10,13,16-tetraenoate

> <PUBCHEM_IUPAC_NAME>
[(2R)-1-[[(2S)-2,3-dihydroxypropoxy]-hydroxyphosphoryl]oxy-3-octadecanoyloxypropan-2-yl] (7Z,10Z,13Z,16Z)-docosa-7,10,13,16-tetraenoate

> <PUBCHEM_IUPAC_SYSTEMATIC_NAME>
[(2R)-1-[[(2S)-2,3-bis(oxidanyl)propoxy]-oxidanyl-phosphoryl]oxy-3-octadecanoyloxy-propan-2-yl] (7Z,10Z,13Z,16Z)-docosa-7,10,13,16-tetraenoate

> <PUBCHEM_IUPAC_TRADITIONAL_NAME>
(7Z,10Z,13Z,16Z)-docosa-7,10,13,16-tetraenoic acid [(1R)-1-[[[(2S)-2,3-dihydroxypropoxy]-hydroxy-phosphoryl]oxymethyl]-2-stearoyloxy-ethyl] ester

> <PUBCHEM_IUPAC_INCHI>
InChI=1S/C46H83O10P/c1-3-5-7-9-11-13-15-17-19-20-21-22-24-26-28-30-32-34-36-38-46(50)56-44(42-55-57(51,52)54-40-43(48)39-47)41-53-45(49)37-35-33-31-29-27-25-23-18-16-14-12-10-8-6-4-2/h11,13,17,19,21-22,26,28,43-44,47-48H,3-10,12,14-16,18,20,23-25,27,29-42H2,1-2H3,(H,51,52)/b13-11-,19-17-,22-21-,28-26-/t43-,44+/m0/s1

> <PUBCHEM_IUPAC_INCHIKEY>
DDDVOYJWOXYXHJ-RKHXCIBKSA-N

> <PUBCHEM_XLOGP3_AA>
13.5

> <PUBCHEM_EXACT_MASS>
826.572386

> <PUBCHEM_MOLECULAR_FORMULA>
C46H83O10P

> <PUBCHEM_MOLECULAR_WEIGHT>
827.1

> <PUBCHEM_OPENEYE_CAN_SMILES>
CCCCCCCCCCCCCCCCCC(=O)OCC(COP(=O)(O)OCC(CO)O)OC(=O)CCCCCC=CCC=CCC=CCC=CCCCCC

> <PUBCHEM_OPENEYE_ISO_SMILES>
CCCCCCCCCCCCCCCCCC(=O)OC[C@H](COP(=O)(O)OC[C@H](CO)O)OC(=O)CCCCC/C=C\C/C=C\C/C=C\C/C=C\CCCCC

> <PUBCHEM_CACTVS_TPSA>
149

> <PUBCHEM_MONOISOTOPIC_WEIGHT>
826.572386

> <PUBCHEM_TOTAL_CHARGE>
0

> <PUBCHEM_HEAVY_ATOM_COUNT>
57

> <PUBCHEM_ATOM_DEF_STEREO_COUNT>
2

> <PUBCHEM_ATOM_UDEF_STEREO_COUNT>
0

> <PUBCHEM_BOND_DEF_STEREO_COUNT>
4

> <PUBCHEM_BOND_UDEF_STEREO_COUNT>
0

> <PUBCHEM_ISOTOPIC_ATOM_COUNT>
0

> <PUBCHEM_COMPONENT_COUNT>
1

> <PUBCHEM_CACTVS_TAUTO_COUNT>
-1

> <PUBCHEM_COORDINATE_TYPE>
1
5
255

> <PUBCHEM_BONDANNOTATIONS>
47  10  5
31  4  5

$$$$
