78360
  -OEChem-09152004203D

 48 47  0     0  0  0  0  0  0999 V2000
  -10.5851   -0.2778   -0.1080 O   0  0  0  0  0  0  0  0  0  0  0  0
    9.5211   -0.6446   -0.1423 O   0  0  0  0  0  0  0  0  0  0  0  0
    8.5401    1.4052   -0.0261 O   0  0  0  0  0  0  0  0  0  0  0  0
   -0.5192   -0.4787    0.1586 C   0  0  0  0  0  0  0  0  0  0  0  0
   -1.7947    0.3688    0.1272 C   0  0  0  0  0  0  0  0  0  0  0  0
    0.8001    0.2982    0.0898 C   0  0  0  0  0  0  0  0  0  0  0  0
   -3.0790   -0.4637    0.1146 C   0  0  0  0  0  0  0  0  0  0  0  0
    2.0727   -0.5548    0.0638 C   0  0  0  0  0  0  0  0  0  0  0  0
   -4.3167    0.4350    0.0569 C   0  0  0  0  0  0  0  0  0  0  0  0
    3.3577    0.2767    0.0746 C   0  0  0  0  0  0  0  0  0  0  0  0
   -5.6320   -0.3434   -0.0463 C   0  0  0  0  0  0  0  0  0  0  0  0
    4.6311   -0.5757    0.0560 C   0  0  0  0  0  0  0  0  0  0  0  0
   -6.9103    0.5010   -0.0477 C   0  0  0  0  0  0  0  0  0  0  0  0
    5.9159    0.2578   -0.0109 C   0  0  0  0  0  0  0  0  0  0  0  0
   -8.1910   -0.3313   -0.0655 C   0  0  0  0  0  0  0  0  0  0  0  0
    7.1705   -0.6126   -0.0954 C   0  0  0  0  0  0  0  0  0  0  0  0
   -9.4311    0.5514   -0.1082 C   0  0  0  0  0  0  0  0  0  0  0  0
    8.4500    0.1884   -0.0910 C   0  0  0  0  0  0  0  0  0  0  0  0
   -0.5215   -1.0877    1.0713 H   0  0  0  0  0  0  0  0  0  0  0  0
   -0.5470   -1.1834   -0.6823 H   0  0  0  0  0  0  0  0  0  0  0  0
   -1.8001    1.0371    0.9970 H   0  0  0  0  0  0  0  0  0  0  0  0
   -1.7713    1.0090   -0.7633 H   0  0  0  0  0  0  0  0  0  0  0  0
    0.7870    0.9343   -0.8043 H   0  0  0  0  0  0  0  0  0  0  0  0
    0.8457    0.9771    0.9507 H   0  0  0  0  0  0  0  0  0  0  0  0
   -3.1213   -1.0941    1.0106 H   0  0  0  0  0  0  0  0  0  0  0  0
   -3.0716   -1.1334   -0.7535 H   0  0  0  0  0  0  0  0  0  0  0  0
    2.0715   -1.2243    0.9326 H   0  0  0  0  0  0  0  0  0  0  0  0
    2.0582   -1.1928   -0.8281 H   0  0  0  0  0  0  0  0  0  0  0  0
   -4.3444    1.0682    0.9523 H   0  0  0  0  0  0  0  0  0  0  0  0
   -4.2399    1.1094   -0.8049 H   0  0  0  0  0  0  0  0  0  0  0  0
    3.3582    0.9436   -0.7965 H   0  0  0  0  0  0  0  0  0  0  0  0
    3.3686    0.9180    0.9645 H   0  0  0  0  0  0  0  0  0  0  0  0
   -5.6115   -0.9523   -0.9590 H   0  0  0  0  0  0  0  0  0  0  0  0
   -5.6829   -1.0485    0.7933 H   0  0  0  0  0  0  0  0  0  0  0  0
    4.5969   -1.2490   -0.8095 H   0  0  0  0  0  0  0  0  0  0  0  0
    4.6550   -1.2097    0.9508 H   0  0  0  0  0  0  0  0  0  0  0  0
   -6.8933    1.1660   -0.9199 H   0  0  0  0  0  0  0  0  0  0  0  0
   -6.9124    1.1450    0.8404 H   0  0  0  0  0  0  0  0  0  0  0  0
    5.8777    0.9238   -0.8820 H   0  0  0  0  0  0  0  0  0  0  0  0
    5.9741    0.9048    0.8733 H   0  0  0  0  0  0  0  0  0  0  0  0
   -8.1933   -1.0039   -0.9322 H   0  0  0  0  0  0  0  0  0  0  0  0
   -8.2331   -0.9802    0.8180 H   0  0  0  0  0  0  0  0  0  0  0  0
    7.1983   -1.2942    0.7625 H   0  0  0  0  0  0  0  0  0  0  0  0
    7.1430   -1.2053   -1.0167 H   0  0  0  0  0  0  0  0  0  0  0  0
   -9.4431    1.1652   -1.0146 H   0  0  0  0  0  0  0  0  0  0  0  0
   -9.4741    1.2072    0.7673 H   0  0  0  0  0  0  0  0  0  0  0  0
  -11.3588    0.3105   -0.1355 H   0  0  0  0  0  0  0  0  0  0  0  0
   10.3689   -0.1514   -0.1284 H   0  0  0  0  0  0  0  0  0  0  0  0
  1 17  1  0  0  0  0
  1 47  1  0  0  0  0
  2 18  1  0  0  0  0
  2 48  1  0  0  0  0
  3 18  2  0  0  0  0
  4  5  1  0  0  0  0
  4  6  1  0  0  0  0
  4 19  1  0  0  0  0
  4 20  1  0  0  0  0
  5  7  1  0  0  0  0
  5 21  1  0  0  0  0
  5 22  1  0  0  0  0
  6  8  1  0  0  0  0
  6 23  1  0  0  0  0
  6 24  1  0  0  0  0
  7  9  1  0  0  0  0
  7 25  1  0  0  0  0
  7 26  1  0  0  0  0
  8 10  1  0  0  0  0
  8 27  1  0  0  0  0
  8 28  1  0  0  0  0
  9 11  1  0  0  0  0
  9 29  1  0  0  0  0
  9 30  1  0  0  0  0
 10 12  1  0  0  0  0
 10 31  1  0  0  0  0
 10 32  1  0  0  0  0
 11 13  1  0  0  0  0
 11 33  1  0  0  0  0
 11 34  1  0  0  0  0
 12 14  1  0  0  0  0
 12 35  1  0  0  0  0
 12 36  1  0  0  0  0
 13 15  1  0  0  0  0
 13 37  1  0  0  0  0
 13 38  1  0  0  0  0
 14 16  1  0  0  0  0
 14 39  1  0  0  0  0
 14 40  1  0  0  0  0
 15 17  1  0  0  0  0
 15 41  1  0  0  0  0
 15 42  1  0  0  0  0
 16 18  1  0  0  0  0
 16 43  1  0  0  0  0
 16 44  1  0  0  0  0
 17 45  1  0  0  0  0
 17 46  1  0  0  0  0
M  END
> <PUBCHEM_COMPOUND_CID>
78360

> <PUBCHEM_CONFORMER_RMSD>
1.2

> <PUBCHEM_CONFORMER_DIVERSEORDER>
1
65
106
44
120
7
146
10
60
25
76
55
114
126
115
108
53
123
136
8
110
143
15
62
35
79
51
81
43
41
21
98
47
46
49
102
137
28
19
140
17
13
124
45
48
68
50
87
72
107
101
52
11
128
74
86
36
66
127
100
84
97
78
40
147
109
2
151
150
57
133
152
30
135
64
105
31
119
75
93
94
90
80
24
59
104
26
32
71
16
29
129
70
58
130
95
92
18
56
12
42
73
61
23
99
122
96
3
82
134
83
138
22
4
139
89
85
113
112
14
77
142
132
144
131
9
88
125
38
69
145
118
6
63
149
54
34
103
39
37
33
67
117
121
141
91
148
5
116
27
111
20

> <PUBCHEM_MMFF94_PARTIAL_CHARGES>
8
1 -0.68
16 0.06
17 0.28
18 0.66
2 -0.65
3 -0.57
47 0.4
48 0.5

> <PUBCHEM_EFFECTIVE_ROTOR_COUNT>
14

> <PUBCHEM_PHARMACOPHORE_FEATURES>
5
1 1 acceptor
1 1 donor
1 2 acceptor
1 3 acceptor
3 2 3 18 anion

> <PUBCHEM_HEAVY_ATOM_COUNT>
18

> <PUBCHEM_ATOM_DEF_STEREO_COUNT>
0

> <PUBCHEM_ATOM_UDEF_STEREO_COUNT>
0

> <PUBCHEM_BOND_DEF_STEREO_COUNT>
0

> <PUBCHEM_BOND_UDEF_STEREO_COUNT>
0

> <PUBCHEM_ISOTOPIC_ATOM_COUNT>
0

> <PUBCHEM_COMPONENT_COUNT>
1

> <PUBCHEM_CACTVS_TAUTO_COUNT>
1

> <PUBCHEM_CONFORMER_ID>
0001321800000001

> <PUBCHEM_MMFF94_ENERGY>
3.0113

> <PUBCHEM_FEATURE_SELFOVERLAP>
25.429

> <PUBCHEM_SHAPE_FINGERPRINT>
11315181 36 18272374179214670595
11638347 137 8358264748277133568
14123256 10 18410856555344822278
14251764 18 17203614770201202370
14251764 46 18409729560638115527
15510794 2 18408046208294442259
16120349 18 18408603695487131060
21362267 2 17968647332609320676
21362267 313 17823126831122488153
22224240 67 17312822689046634698
232437 2 18411699876779913894
23521765 1 18341894090834064075
23581129 1 18409449184756242791
246663 6 13542465371116116530
33684 2 18410855455833200995
67123 10 18410855464423129095
8209 1 18410855460138724307

> <PUBCHEM_SHAPE_MULTIPOLES>
352.82
39.06
0.87
0.61
13.36
0.09
0
2.18
2.72
-0.72
0
0.04
0
0.04

> <PUBCHEM_SHAPE_SELFOVERLAP>
641.516

> <PUBCHEM_SHAPE_VOLUME>
224.6

> <PUBCHEM_COORDINATE_TYPE>
2
5
10

$$$$
