21634211
  -OEChem-09152004253D

 54 57  0     1  0  0  0  0  0999 V2000
    5.5663   -0.9190   -0.0834 O   0  0  0  0  0  0  0  0  0  0  0  0
   -5.3028   -0.7561    0.7521 O   0  0  0  0  0  0  0  0  0  0  0  0
    0.8910    0.7020   -0.1139 C   0  0  1  0  0  0  0  0  0  0  0  0
    2.3310    0.6901    0.4022 C   0  0  1  0  0  0  0  0  0  0  0  0
    0.1727   -0.5922    0.3634 C   0  0  1  0  0  0  0  0  0  0  0  0
    3.1337   -0.5172   -0.1198 C   0  0  2  0  0  0  0  0  0  0  0  0
   -1.2901   -0.6269   -0.1748 C   0  0  2  0  0  0  0  0  0  0  0  0
   -2.0719    0.6509    0.2650 C   0  0  1  0  0  0  0  0  0  0  0  0
    0.9821   -1.8658    0.0063 C   0  0  0  0  0  0  0  0  0  0  0  0
    2.4667   -1.7929    0.4070 C   0  0  0  0  0  0  0  0  0  0  0  0
    0.1253    1.9376    0.3616 C   0  0  0  0  0  0  0  0  0  0  0  0
    3.2405    1.8787    0.1019 C   0  0  0  0  0  0  0  0  0  0  0  0
    4.5036   -0.1973    0.5088 C   0  0  2  0  0  0  0  0  0  0  0  0
   -1.3092    1.9229   -0.1561 C   0  0  0  0  0  0  0  0  0  0  0  0
    4.6614    1.3222    0.3056 C   0  0  0  0  0  0  0  0  0  0  0  0
   -3.5651    0.6553   -0.2063 C   0  0  0  0  0  0  0  0  0  0  0  0
   -2.0375   -1.8881    0.2961 C   0  0  0  0  0  0  0  0  0  0  0  0
    3.2543   -0.5985   -1.6629 C   0  0  0  0  0  0  0  0  0  0  0  0
   -3.4703   -1.9362   -0.2013 C   0  0  0  0  0  0  0  0  0  0  0  0
   -4.2070   -0.6817    0.1952 C   0  0  0  0  0  0  0  0  0  0  0  0
   -3.7283    0.8166   -1.7279 C   0  0  0  0  0  0  0  0  0  0  0  0
   -4.3463    1.7956    0.4815 C   0  0  0  0  0  0  0  0  0  0  0  0
    0.8960    0.7239   -1.2108 H   0  0  0  0  0  0  0  0  0  0  0  0
    2.2732    0.6221    1.5017 H   0  0  0  0  0  0  0  0  0  0  0  0
    0.1186   -0.5577    1.4622 H   0  0  0  0  0  0  0  0  0  0  0  0
   -1.2390   -0.6513   -1.2717 H   0  0  0  0  0  0  0  0  0  0  0  0
   -2.0877    0.6390    1.3663 H   0  0  0  0  0  0  0  0  0  0  0  0
    0.8964   -2.0668   -1.0678 H   0  0  0  0  0  0  0  0  0  0  0  0
    0.5537   -2.7350    0.5180 H   0  0  0  0  0  0  0  0  0  0  0  0
    2.5312   -1.8246    1.5025 H   0  0  0  0  0  0  0  0  0  0  0  0
    2.9914   -2.6842    0.0424 H   0  0  0  0  0  0  0  0  0  0  0  0
    0.6174    2.8499    0.0052 H   0  0  0  0  0  0  0  0  0  0  0  0
    0.1208    1.9850    1.4578 H   0  0  0  0  0  0  0  0  0  0  0  0
    3.0450    2.7238    0.7698 H   0  0  0  0  0  0  0  0  0  0  0  0
    3.1128    2.2326   -0.9272 H   0  0  0  0  0  0  0  0  0  0  0  0
    4.4980   -0.4247    1.5823 H   0  0  0  0  0  0  0  0  0  0  0  0
   -1.8115    2.8182    0.2237 H   0  0  0  0  0  0  0  0  0  0  0  0
   -1.2866    2.0072   -1.2489 H   0  0  0  0  0  0  0  0  0  0  0  0
    5.2994    1.5597   -0.5532 H   0  0  0  0  0  0  0  0  0  0  0  0
    5.1335    1.7714    1.1865 H   0  0  0  0  0  0  0  0  0  0  0  0
   -2.0298   -1.9281    1.3930 H   0  0  0  0  0  0  0  0  0  0  0  0
   -1.5352   -2.7920   -0.0629 H   0  0  0  0  0  0  0  0  0  0  0  0
    3.7596    0.2737   -2.0895 H   0  0  0  0  0  0  0  0  0  0  0  0
    3.8331   -1.4816   -1.9581 H   0  0  0  0  0  0  0  0  0  0  0  0
    2.2838   -0.6773   -2.1596 H   0  0  0  0  0  0  0  0  0  0  0  0
   -3.9823   -2.8011    0.2350 H   0  0  0  0  0  0  0  0  0  0  0  0
   -3.5117   -2.0438   -1.2898 H   0  0  0  0  0  0  0  0  0  0  0  0
   -3.4327    1.8163   -2.0630 H   0  0  0  0  0  0  0  0  0  0  0  0
   -3.1350    0.0886   -2.2891 H   0  0  0  0  0  0  0  0  0  0  0  0
   -4.7737    0.6697   -2.0252 H   0  0  0  0  0  0  0  0  0  0  0  0
   -3.9954    2.7832    0.1670 H   0  0  0  0  0  0  0  0  0  0  0  0
   -5.4151    1.7490    0.2400 H   0  0  0  0  0  0  0  0  0  0  0  0
   -4.2575    1.7337    1.5721 H   0  0  0  0  0  0  0  0  0  0  0  0
    6.3942   -0.5943    0.3096 H   0  0  0  0  0  0  0  0  0  0  0  0
  1 13  1  0  0  0  0
  1 54  1  0  0  0  0
  2 20  2  0  0  0  0
  3  4  1  0  0  0  0
  3  5  1  0  0  0  0
  3 11  1  0  0  0  0
  3 23  1  0  0  0  0
  4  6  1  0  0  0  0
  4 12  1  0  0  0  0
  4 24  1  0  0  0  0
  5  7  1  0  0  0  0
  5  9  1  0  0  0  0
  5 25  1  0  0  0  0
  6 10  1  0  0  0  0
  6 13  1  0  0  0  0
  6 18  1  0  0  0  0
  7  8  1  0  0  0  0
  7 17  1  0  0  0  0
  7 26  1  0  0  0  0
  8 14  1  0  0  0  0
  8 16  1  0  0  0  0
  8 27  1  0  0  0  0
  9 10  1  0  0  0  0
  9 28  1  0  0  0  0
  9 29  1  0  0  0  0
 10 30  1  0  0  0  0
 10 31  1  0  0  0  0
 11 14  1  0  0  0  0
 11 32  1  0  0  0  0
 11 33  1  0  0  0  0
 12 15  1  0  0  0  0
 12 34  1  0  0  0  0
 12 35  1  0  0  0  0
 13 15  1  0  0  0  0
 13 36  1  0  0  0  0
 14 37  1  0  0  0  0
 14 38  1  0  0  0  0
 15 39  1  0  0  0  0
 15 40  1  0  0  0  0
 16 20  1  0  0  0  0
 16 21  1  0  0  0  0
 16 22  1  0  0  0  0
 17 19  1  0  0  0  0
 17 41  1  0  0  0  0
 17 42  1  0  0  0  0
 18 43  1  0  0  0  0
 18 44  1  0  0  0  0
 18 45  1  0  0  0  0
 19 20  1  0  0  0  0
 19 46  1  0  0  0  0
 19 47  1  0  0  0  0
 21 48  1  0  0  0  0
 21 49  1  0  0  0  0
 21 50  1  0  0  0  0
 22 51  1  0  0  0  0
 22 52  1  0  0  0  0
 22 53  1  0  0  0  0
M  END
> <PUBCHEM_COMPOUND_CID>
21634211

> <PUBCHEM_CONFORMER_RMSD>
0.6

> <PUBCHEM_CONFORMER_DIVERSEORDER>
1

> <PUBCHEM_MMFF94_PARTIAL_CHARGES>
7
1 -0.68
13 0.28
16 0.06
19 0.06
2 -0.57
20 0.45
54 0.4

> <PUBCHEM_EFFECTIVE_ROTOR_COUNT>
2

> <PUBCHEM_PHARMACOPHORE_FEATURES>
8
1 1 acceptor
1 1 donor
1 2 acceptor
3 16 21 22 hydrophobe
5 4 6 12 13 15 rings
6 3 4 5 6 9 10 rings
6 3 5 7 8 11 14 rings
6 7 8 16 17 19 20 rings

> <PUBCHEM_HEAVY_ATOM_COUNT>
22

> <PUBCHEM_ATOM_DEF_STEREO_COUNT>
7

> <PUBCHEM_ATOM_UDEF_STEREO_COUNT>
0

> <PUBCHEM_BOND_DEF_STEREO_COUNT>
0

> <PUBCHEM_BOND_UDEF_STEREO_COUNT>
0

> <PUBCHEM_ISOTOPIC_ATOM_COUNT>
0

> <PUBCHEM_COMPONENT_COUNT>
1

> <PUBCHEM_CACTVS_TAUTO_COUNT>
2

> <PUBCHEM_CONFORMER_ID>
014A1CA300000001

> <PUBCHEM_MMFF94_ENERGY>
74.3016

> <PUBCHEM_FEATURE_SELFOVERLAP>
40.688

> <PUBCHEM_SHAPE_FINGERPRINT>
10498660 4 18408885135481338284
10616163 171 18412544314463072431
10646746 165 18409448102756923542
10967382 1 18410572902840804658
11132069 177 18410008844770107161
12107183 9 17906452121547984595
12166972 35 17748831821648975836
12403259 415 18334570261293822300
12403814 3 17531246145618617741
12553582 1 18411972547015496145
12596602 18 13758066411668445518
12788726 201 17416969413697689329
128620 24 18060419127166559110
13140716 1 18410295855954556737
13224815 77 18409167714079793681
13583140 156 16805316670043992849
13862211 1 18410568500494415291
14790565 3 18411426119616997049
15196674 1 18411136952527503760
15375358 24 18343300366359087406
15536298 74 18342740732141465592
15788980 27 16877941620291680708
16945 1 18338797801734387208
17349148 13 17458345230198650784
17844677 252 18412270535988849433
1813 80 17312824883178759173
18186145 218 18408040693197159916
19141452 34 18131072683838038223
19591789 44 18339077219379792459
200 152 17847058878695975896
20645477 70 18273500065709467270
21267235 1 18410301319364025091
21279426 13 18339361842889031318
21421861 104 17969777471858984154
21452121 103 18200020867972758864
21709351 56 18261106383388668388
221490 88 18336551632833849754
23402539 116 18271801306932097580
23557571 272 18343309171094791710
23559900 14 18341611474082036790
239999 70 18272094894381188822
2748010 2 18339359802436661089
2871803 45 18408881837035937202
3004659 81 18333450933235139872
335352 9 18339079293901614276
34934 24 18410568470629837891
350125 39 18409451427557554305
3545911 37 18408886230603027098
3680242 22 18335983060894865018
4214541 1 18410855456049667313
474 4 17676774279003033436
4990 188 18202007612036870694
5104073 3 18410291406420939384
542803 24 17203896270704980691
59755656 215 18338239263377699478
633830 44 18201439134275988237
77779 3 18411701006166116386
9709674 26 18343024363186640206

> <PUBCHEM_SHAPE_MULTIPOLES>
441.01
10.67
2.26
0.97
1.07
0.04
-0.41
0
0.19
-0.46
0.18
-0.18
0.03
0.42

> <PUBCHEM_SHAPE_SELFOVERLAP>
937.087

> <PUBCHEM_SHAPE_VOLUME>
244

> <PUBCHEM_COORDINATE_TYPE>
2
5
10

$$$$
