549469
  -OEChem-09152003353D

 18 20  0     1  0  0  0  0  0999 V2000
   -0.7723    1.1985    0.9063 O   0  0  0  0  0  0  0  0  0  0  0  0
    0.4695    1.2036   -1.0153 O   0  0  0  0  0  0  0  0  0  0  0  0
    1.0780   -1.5620   -0.0887 O   0  0  0  0  0  0  0  0  0  0  0  0
   -2.4174   -0.8477   -0.1594 O   0  0  0  0  0  0  0  0  0  0  0  0
    0.3300    0.3223    1.1223 C   0  0  1  0  0  0  0  0  0  0  0  0
   -0.0993   -1.0103    0.5161 C   0  0  1  0  0  0  0  0  0  0  0  0
    1.3240    0.7809    0.0803 C   0  0  1  0  0  0  0  0  0  0  0  0
   -1.0909   -0.5472   -0.5609 C   0  0  2  0  0  0  0  0  0  0  0  0
   -0.8559    0.9626   -0.5116 C   0  0  1  0  0  0  0  0  0  0  0  0
    2.0343   -0.5007   -0.2892 C   0  0  0  0  0  0  0  0  0  0  0  0
    0.6986    0.2795    2.1494 H   0  0  0  0  0  0  0  0  0  0  0  0
   -0.5358   -1.7113    1.2330 H   0  0  0  0  0  0  0  0  0  0  0  0
    1.9720    1.6142    0.3601 H   0  0  0  0  0  0  0  0  0  0  0  0
   -0.8905   -0.9848   -1.5440 H   0  0  0  0  0  0  0  0  0  0  0  0
   -1.6157    1.5848   -0.9905 H   0  0  0  0  0  0  0  0  0  0  0  0
    2.3667   -0.5238   -1.3307 H   0  0  0  0  0  0  0  0  0  0  0  0
    2.8819   -0.6970    0.3743 H   0  0  0  0  0  0  0  0  0  0  0  0
   -3.0161   -0.4469   -0.8123 H   0  0  0  0  0  0  0  0  0  0  0  0
  1  5  1  0  0  0  0
  1  9  1  0  0  0  0
  2  7  1  0  0  0  0
  2  9  1  0  0  0  0
  3  6  1  0  0  0  0
  3 10  1  0  0  0  0
  4  8  1  0  0  0  0
  4 18  1  0  0  0  0
  5  6  1  0  0  0  0
  5  7  1  0  0  0  0
  5 11  1  0  0  0  0
  6  8  1  0  0  0  0
  6 12  1  0  0  0  0
  7 10  1  0  0  0  0
  7 13  1  0  0  0  0
  8  9  1  0  0  0  0
  8 14  1  0  0  0  0
  9 15  1  0  0  0  0
 10 16  1  0  0  0  0
 10 17  1  0  0  0  0
M  END
> <PUBCHEM_COMPOUND_CID>
549469

> <PUBCHEM_CONFORMER_RMSD>
0.4

> <PUBCHEM_CONFORMER_DIVERSEORDER>
1
4
2
3

> <PUBCHEM_MMFF94_PARTIAL_CHARGES>
11
1 -0.56
10 0.28
18 0.4
2 -0.56
3 -0.56
4 -0.68
5 0.28
6 0.28
7 0.28
8 0.28
9 0.56

> <PUBCHEM_EFFECTIVE_ROTOR_COUNT>
1

> <PUBCHEM_PHARMACOPHORE_FEATURES>
6
1 1 acceptor
1 2 acceptor
1 3 acceptor
1 4 acceptor
1 4 donor
9 1 2 3 5 6 7 8 9 10 rings

> <PUBCHEM_HEAVY_ATOM_COUNT>
10

> <PUBCHEM_ATOM_DEF_STEREO_COUNT>
0

> <PUBCHEM_ATOM_UDEF_STEREO_COUNT>
5

> <PUBCHEM_BOND_DEF_STEREO_COUNT>
0

> <PUBCHEM_BOND_UDEF_STEREO_COUNT>
0

> <PUBCHEM_ISOTOPIC_ATOM_COUNT>
0

> <PUBCHEM_COMPONENT_COUNT>
1

> <PUBCHEM_CACTVS_TAUTO_COUNT>
1

> <PUBCHEM_CONFORMER_ID>
0008625D00000001

> <PUBCHEM_MMFF94_ENERGY>
44.7843

> <PUBCHEM_FEATURE_SELFOVERLAP>
30.506

> <PUBCHEM_SHAPE_FINGERPRINT>
12423570 1 11604191362542195184
13024252 1 15940955283355169646
137420 1 9672572371375522312
14128692 85 18341615953089413534
16945 1 18413386535916459646
21040471 1 17689429812082835907
241688 4 18190177893144871480
29004967 10 18261955253404210011
369184 2 18057032511489745618
5084963 1 18333447629914691826

> <PUBCHEM_SHAPE_MULTIPOLES>
182.32
2.1
1.43
0.98
0.28
0.07
0.12
0.54
-0.3
-0.02
-0.05
0
-0.2
-0.04

> <PUBCHEM_SHAPE_SELFOVERLAP>
410.521

> <PUBCHEM_SHAPE_VOLUME>
100

> <PUBCHEM_COORDINATE_TYPE>
2
5
10

$$$$
