5365572
  -OEChem-09152004233D

 44 43  0     0  0  0  0  0  0999 V2000
   -0.3284    2.8799   -0.2320 C   0  0  0  0  0  0  0  0  0  0  0  0
   -0.5398    1.7105   -1.2023 C   0  0  0  0  0  0  0  0  0  0  0  0
    1.1243    3.1253    0.1955 C   0  0  0  0  0  0  0  0  0  0  0  0
   -2.3984   -0.9627    0.6267 C   0  0  0  0  0  0  0  0  0  0  0  0
   -2.0995   -0.8403   -0.8712 C   0  0  0  0  0  0  0  0  0  0  0  0
   -3.8832   -1.0537    0.9931 C   0  0  0  0  0  0  0  0  0  0  0  0
    3.4032    0.1455    1.2925 C   0  0  0  0  0  0  0  0  0  0  0  0
   -1.9691    1.5468   -1.6294 C   0  0  0  0  0  0  0  0  0  0  0  0
    3.3967   -1.1637    0.4954 C   0  0  0  0  0  0  0  0  0  0  0  0
   -2.6640    0.4092   -1.4815 C   0  0  0  0  0  0  0  0  0  0  0  0
    1.7188    1.9717    0.9493 C   0  0  0  0  0  0  0  0  0  0  0  0
    2.8031    1.2971    0.5391 C   0  0  0  0  0  0  0  0  0  0  0  0
    1.9865   -1.6645    0.1650 C   0  0  0  0  0  0  0  0  0  0  0  0
   -4.1310   -1.2275    2.4834 C   0  0  0  0  0  0  0  0  0  0  0  0
    2.0329   -2.9849   -0.5470 C   0  0  0  0  0  0  0  0  0  0  0  0
    1.5482   -3.1887   -1.7767 C   0  0  0  0  0  0  0  0  0  0  0  0
   -0.7048    3.8012   -0.6957 H   0  0  0  0  0  0  0  0  0  0  0  0
   -0.9422    2.7164    0.6643 H   0  0  0  0  0  0  0  0  0  0  0  0
    0.0583    1.8909   -2.1044 H   0  0  0  0  0  0  0  0  0  0  0  0
   -0.1300    0.8121   -0.7417 H   0  0  0  0  0  0  0  0  0  0  0  0
    1.1573    4.0100    0.8427 H   0  0  0  0  0  0  0  0  0  0  0  0
    1.7238    3.3639   -0.6914 H   0  0  0  0  0  0  0  0  0  0  0  0
   -1.8931   -1.8633    0.9986 H   0  0  0  0  0  0  0  0  0  0  0  0
   -1.9466   -0.1157    1.1589 H   0  0  0  0  0  0  0  0  0  0  0  0
   -1.0275   -0.9530   -1.0522 H   0  0  0  0  0  0  0  0  0  0  0  0
   -2.5531   -1.6943   -1.3916 H   0  0  0  0  0  0  0  0  0  0  0  0
   -4.4044   -0.1487    0.6605 H   0  0  0  0  0  0  0  0  0  0  0  0
   -4.3366   -1.8970    0.4588 H   0  0  0  0  0  0  0  0  0  0  0  0
    4.4402    0.4032    1.5393 H   0  0  0  0  0  0  0  0  0  0  0  0
    2.8854   -0.0095    2.2470 H   0  0  0  0  0  0  0  0  0  0  0  0
   -2.4570    2.4016   -2.0902 H   0  0  0  0  0  0  0  0  0  0  0  0
    3.9277   -1.9250    1.0816 H   0  0  0  0  0  0  0  0  0  0  0  0
    3.9677   -1.0304   -0.4330 H   0  0  0  0  0  0  0  0  0  0  0  0
   -3.6981    0.3816   -1.8149 H   0  0  0  0  0  0  0  0  0  0  0  0
    1.2303    1.6881    1.8781 H   0  0  0  0  0  0  0  0  0  0  0  0
    3.2946    1.5850   -0.3868 H   0  0  0  0  0  0  0  0  0  0  0  0
    1.4603   -0.9257   -0.4478 H   0  0  0  0  0  0  0  0  0  0  0  0
    1.4089   -1.7865    1.0891 H   0  0  0  0  0  0  0  0  0  0  0  0
   -5.2048   -1.2871    2.6865 H   0  0  0  0  0  0  0  0  0  0  0  0
   -3.6626   -2.1453    2.8524 H   0  0  0  0  0  0  0  0  0  0  0  0
   -3.7231   -0.3828    3.0475 H   0  0  0  0  0  0  0  0  0  0  0  0
    2.4785   -3.8230   -0.0174 H   0  0  0  0  0  0  0  0  0  0  0  0
    1.6067   -4.1701   -2.2344 H   0  0  0  0  0  0  0  0  0  0  0  0
    1.0879   -2.3882   -2.3453 H   0  0  0  0  0  0  0  0  0  0  0  0
  1  2  1  0  0  0  0
  1  3  1  0  0  0  0
  1 17  1  0  0  0  0
  1 18  1  0  0  0  0
  2  8  1  0  0  0  0
  2 19  1  0  0  0  0
  2 20  1  0  0  0  0
  3 11  1  0  0  0  0
  3 21  1  0  0  0  0
  3 22  1  0  0  0  0
  4  5  1  0  0  0  0
  4  6  1  0  0  0  0
  4 23  1  0  0  0  0
  4 24  1  0  0  0  0
  5 10  1  0  0  0  0
  5 25  1  0  0  0  0
  5 26  1  0  0  0  0
  6 14  1  0  0  0  0
  6 27  1  0  0  0  0
  6 28  1  0  0  0  0
  7  9  1  0  0  0  0
  7 12  1  0  0  0  0
  7 29  1  0  0  0  0
  7 30  1  0  0  0  0
  8 10  2  0  0  0  0
  8 31  1  0  0  0  0
  9 13  1  0  0  0  0
  9 32  1  0  0  0  0
  9 33  1  0  0  0  0
 10 34  1  0  0  0  0
 11 12  2  0  0  0  0
 11 35  1  0  0  0  0
 12 36  1  0  0  0  0
 13 15  1  0  0  0  0
 13 37  1  0  0  0  0
 13 38  1  0  0  0  0
 14 39  1  0  0  0  0
 14 40  1  0  0  0  0
 14 41  1  0  0  0  0
 15 16  2  0  0  0  0
 15 42  1  0  0  0  0
 16 43  1  0  0  0  0
 16 44  1  0  0  0  0
M  END
> <PUBCHEM_COMPOUND_CID>
5365572

> <PUBCHEM_CONFORMER_RMSD>
1.2

> <PUBCHEM_CONFORMER_DIVERSEORDER>
1
11
49
23
29
17
12
2
59
47
40
33
34
37
5
7
20
65
56
66
62
30
24
21
44
16
61
57
8
60
9
14
32
27
54
3
35
26
67
50
45
13
22
15
53
36
10
51
28
4
6
19
42
41
39
31
58
25
18
38
46
55
64
43
52
48
63

> <PUBCHEM_MMFF94_PARTIAL_CHARGES>
18
10 -0.29
11 -0.29
12 -0.29
13 0.14
15 -0.29
16 -0.3
2 0.14
3 0.14
31 0.15
34 0.15
35 0.15
36 0.15
42 0.15
43 0.15
44 0.15
5 0.14
7 0.14
8 -0.29

> <PUBCHEM_EFFECTIVE_ROTOR_COUNT>
11

> <PUBCHEM_PHARMACOPHORE_FEATURES>
5
1 14 hydrophobe
1 16 hydrophobe
4 4 5 6 10 hydrophobe
5 1 2 3 8 11 hydrophobe
5 7 9 12 13 15 hydrophobe

> <PUBCHEM_HEAVY_ATOM_COUNT>
16

> <PUBCHEM_ATOM_DEF_STEREO_COUNT>
0

> <PUBCHEM_ATOM_UDEF_STEREO_COUNT>
0

> <PUBCHEM_BOND_DEF_STEREO_COUNT>
2

> <PUBCHEM_BOND_UDEF_STEREO_COUNT>
0

> <PUBCHEM_ISOTOPIC_ATOM_COUNT>
0

> <PUBCHEM_COMPONENT_COUNT>
1

> <PUBCHEM_CACTVS_TAUTO_COUNT>
1

> <PUBCHEM_CONFORMER_ID>
0051DF4400000001

> <PUBCHEM_MMFF94_ENERGY>
1.1686

> <PUBCHEM_FEATURE_SELFOVERLAP>
25.376

> <PUBCHEM_SHAPE_FINGERPRINT>
10064457 181 17695356158287195176
117890 22 18114464582169634377
12539773 59 16915349286580703423
12596599 1 17418083352062388638
1420 336 17262703388213252294
14251705 54 18336818736897506060
14251739 40 18131072628351375911
15003188 3 18115046176645108043
15635459 17 18339626850702789718
19734167 9 17555431179371479714
19930381 70 17982988091208217191
20397935 3 16661219168268753442
20429552 37 18337681824003767577
20645477 70 18046319071851933253
20765182 20 18338526325552590915
21427221 339 17560260049651478755
23557571 272 18115312163479183619
445580 2 17836942105080033729
445580 42 17184196041766647266
5282274 181 18049452726987886483
539174 4 17918279757275479403
7987 15 18333736809967877137

> <PUBCHEM_SHAPE_MULTIPOLES>
329.27
6.83
4.15
1.95
3.24
0.21
-0.26
-3.42
-3.88
-2.67
1.25
1.83
-0.67
2.54

> <PUBCHEM_SHAPE_SELFOVERLAP>
602.467

> <PUBCHEM_SHAPE_VOLUME>
204.8

> <PUBCHEM_COORDINATE_TYPE>
2
5
10

$$$$
