91693811
  -OEChem-09152004223D

 38 38  0     0  0  0  0  0  0999 V2000
   -1.4489    0.1572   -0.2372 O   0  0  0  0  0  0  0  0  0  0  0  0
   -0.4656   -1.8696    0.2604 O   0  0  0  0  0  0  0  0  0  0  0  0
   -5.1334    0.1065   -0.0808 N   0  0  0  0  0  0  0  0  0  0  0  0
    3.4049   -0.0503   -0.4020 C   0  0  0  0  0  0  0  0  0  0  0  0
    4.6642   -0.8739   -0.1516 C   0  0  0  0  0  0  0  0  0  0  0  0
    3.6149    1.1515    0.5139 C   0  0  0  0  0  0  0  0  0  0  0  0
    5.7742    0.1685   -0.0656 C   0  0  0  0  0  0  0  0  0  0  0  0
    5.1005    1.4694    0.3745 C   0  0  0  0  0  0  0  0  0  0  0  0
    2.1238   -0.8107   -0.1078 C   0  0  0  0  0  0  0  0  0  0  0  0
    0.8904    0.0659   -0.3145 C   0  0  0  0  0  0  0  0  0  0  0  0
   -0.3928   -0.6905   -0.0573 C   0  0  0  0  0  0  0  0  0  0  0  0
   -2.7429   -0.4175   -0.0273 C   0  0  0  0  0  0  0  0  0  0  0  0
   -3.7969    0.6518   -0.2665 C   0  0  0  0  0  0  0  0  0  0  0  0
   -5.4644    0.0195    1.3436 C   0  0  0  0  0  0  0  0  0  0  0  0
   -6.1280    0.9222   -0.7818 C   0  0  0  0  0  0  0  0  0  0  0  0
    3.4009    0.2880   -1.4472 H   0  0  0  0  0  0  0  0  0  0  0  0
    4.8492   -1.6052   -0.9444 H   0  0  0  0  0  0  0  0  0  0  0  0
    3.3883    0.8957    1.5563 H   0  0  0  0  0  0  0  0  0  0  0  0
    2.9983    2.0115    0.2349 H   0  0  0  0  0  0  0  0  0  0  0  0
    4.5939   -1.4180    0.7984 H   0  0  0  0  0  0  0  0  0  0  0  0
    5.5162    1.8451    1.3149 H   0  0  0  0  0  0  0  0  0  0  0  0
    5.2567    2.2435   -0.3858 H   0  0  0  0  0  0  0  0  0  0  0  0
    6.2429    0.3078   -1.0467 H   0  0  0  0  0  0  0  0  0  0  0  0
    6.5591   -0.1408    0.6319 H   0  0  0  0  0  0  0  0  0  0  0  0
    2.1328   -1.1931    0.9212 H   0  0  0  0  0  0  0  0  0  0  0  0
    2.0652   -1.6904   -0.7614 H   0  0  0  0  0  0  0  0  0  0  0  0
    0.8663    0.4369   -1.3452 H   0  0  0  0  0  0  0  0  0  0  0  0
    0.9085    0.9176    0.3737 H   0  0  0  0  0  0  0  0  0  0  0  0
   -2.8821   -1.2518   -0.7259 H   0  0  0  0  0  0  0  0  0  0  0  0
   -2.7860   -0.7985    0.9985 H   0  0  0  0  0  0  0  0  0  0  0  0
   -3.6107    1.5328    0.3621 H   0  0  0  0  0  0  0  0  0  0  0  0
   -3.6636    1.0022   -1.2995 H   0  0  0  0  0  0  0  0  0  0  0  0
   -4.7900   -0.6583    1.8756 H   0  0  0  0  0  0  0  0  0  0  0  0
   -5.9240    0.9390   -1.8583 H   0  0  0  0  0  0  0  0  0  0  0  0
   -6.1456    1.9553   -0.4160 H   0  0  0  0  0  0  0  0  0  0  0  0
   -7.1301    0.4955   -0.6618 H   0  0  0  0  0  0  0  0  0  0  0  0
   -6.4713   -0.3938    1.4746 H   0  0  0  0  0  0  0  0  0  0  0  0
   -5.4335    0.9980    1.8370 H   0  0  0  0  0  0  0  0  0  0  0  0
  1 11  1  0  0  0  0
  1 12  1  0  0  0  0
  2 11  2  0  0  0  0
  3 13  1  0  0  0  0
  3 14  1  0  0  0  0
  3 15  1  0  0  0  0
  4  5  1  0  0  0  0
  4  6  1  0  0  0  0
  4  9  1  0  0  0  0
  4 16  1  0  0  0  0
  5  7  1  0  0  0  0
  5 17  1  0  0  0  0
  5 20  1  0  0  0  0
  6  8  1  0  0  0  0
  6 18  1  0  0  0  0
  6 19  1  0  0  0  0
  7  8  1  0  0  0  0
  7 23  1  0  0  0  0
  7 24  1  0  0  0  0
  8 21  1  0  0  0  0
  8 22  1  0  0  0  0
  9 10  1  0  0  0  0
  9 25  1  0  0  0  0
  9 26  1  0  0  0  0
 10 11  1  0  0  0  0
 10 27  1  0  0  0  0
 10 28  1  0  0  0  0
 12 13  1  0  0  0  0
 12 29  1  0  0  0  0
 12 30  1  0  0  0  0
 13 31  1  0  0  0  0
 13 32  1  0  0  0  0
 14 33  1  0  0  0  0
 14 37  1  0  0  0  0
 14 38  1  0  0  0  0
 15 34  1  0  0  0  0
 15 35  1  0  0  0  0
 15 36  1  0  0  0  0
M  END
> <PUBCHEM_COMPOUND_CID>
91693811

> <PUBCHEM_CONFORMER_RMSD>
1

> <PUBCHEM_CONFORMER_DIVERSEORDER>
1
3
36
38
34
4
5
27
12
31
10
41
9
8
42
37
21
15
17
22
48
18
6
46
2
19
23
24
29
39
14
30
25
47
35
44
11
7
32
50
13
49
43
28
33
45
16
20
26
40

> <PUBCHEM_MMFF94_PARTIAL_CHARGES>
9
1 -0.43
10 0.06
11 0.66
12 0.28
13 0.27
14 0.27
15 0.27
2 -0.57
3 -0.81

> <PUBCHEM_EFFECTIVE_ROTOR_COUNT>
8

> <PUBCHEM_PHARMACOPHORE_FEATURES>
3
1 2 acceptor
1 3 cation
5 4 5 6 7 8 rings

> <PUBCHEM_HEAVY_ATOM_COUNT>
15

> <PUBCHEM_ATOM_DEF_STEREO_COUNT>
0

> <PUBCHEM_ATOM_UDEF_STEREO_COUNT>
0

> <PUBCHEM_BOND_DEF_STEREO_COUNT>
0

> <PUBCHEM_BOND_UDEF_STEREO_COUNT>
0

> <PUBCHEM_ISOTOPIC_ATOM_COUNT>
0

> <PUBCHEM_COMPONENT_COUNT>
1

> <PUBCHEM_CACTVS_TAUTO_COUNT>
1

> <PUBCHEM_CONFORMER_ID>
057722F300000001

> <PUBCHEM_MMFF94_ENERGY>
21.3018

> <PUBCHEM_FEATURE_SELFOVERLAP>
15.223

> <PUBCHEM_SHAPE_FINGERPRINT>
100836 57 18410858784849684324
10354089 29 17748544849013892428
10912923 1 17489305253139441935
11287383 113 18201721777367868959
117890 112 17847063285337683400
11858739 19 8358265838560270072
12091667 2 18187083958125057647
12596602 18 16443067222323129496
12670543 26 12103576255396836161
12714333 28 16487535853616849818
12916748 109 18410860940606827240
13081056 2 18410854343700662468
13167372 99 17917155996130618160
13533116 47 18271525295866411578
13685833 64 9583514339566834749
13955234 65 18340485561222331578
14123238 8 16988843869591658077
1420 363 18114187427755923931
14251718 22 13183019622664966981
14251752 14 14189305811142232225
14251764 18 18334288787013080098
15048467 5 18413106186711992308
15501527 16 18410575119028105083
16079462 125 18041549274689045661
17834072 33 17561358508896118477
17834076 25 16558750113535582253
187816 3 13902190391363092559
19489759 90 16660362572113415229
200 152 11097850800427332967
20281389 69 18410571786334307281
20645477 56 18407758153121326911
20645477 70 17631740370331595134
20767249 213 18411980269535369469
21150785 3 16200142231758012677
21236236 1 18341612681031702791
212847 35 18411419527501275176
22224240 67 18333455348683411003
23402539 116 18342733039902531111
23402655 69 17775565360019475446
23536379 177 16415482631713275919
2916195 48 18409726283456911865
29717793 49 16200160889512671476
300161 21 18342450452334274086
351380 3 10665228163664967649
3545911 37 18410014338529098926
366044 4 18409166614647767915
4047638 21 18411983568328780494
42788 4 18412262835027552405
465052 167 10881400915793075928
5104073 3 18339919432876618826
542803 24 17203611480097880873
57483677 66 7997969063798605593
8272917 22 17846223224601064606

> <PUBCHEM_SHAPE_MULTIPOLES>
291.97
16.24
1.26
0.83
9.31
0.06
0.14
-5.09
0.59
-0.86
0.09
0.83
-0.08
0.73

> <PUBCHEM_SHAPE_SELFOVERLAP>
562.563

> <PUBCHEM_SHAPE_VOLUME>
180.3

> <PUBCHEM_COORDINATE_TYPE>
2
5
10

$$$$
