328441
  -OEChem-09152005262D

153162  0     1  0  0  0  0  0999 V2000
   14.3523    4.0403    0.0000 O   0  0  0  0  0  0  0  0  0  0  0  0
   12.5799    4.9351    0.0000 O   0  0  0  0  0  0  0  0  0  0  0  0
   12.9292   -4.2038    0.0000 O   0  0  0  0  0  0  0  0  0  0  0  0
   11.1972   -4.2038    0.0000 O   0  0  0  0  0  0  0  0  0  0  0  0
   12.9292   -6.2038    0.0000 O   0  0  0  0  0  0  0  0  0  0  0  0
   11.1972   -7.2038    0.0000 O   0  0  0  0  0  0  0  0  0  0  0  0
    9.4651   -6.2038    0.0000 O   0  0  0  0  0  0  0  0  0  0  0  0
   13.7953   -4.7038    0.0000 O   0  0  0  0  0  0  0  0  0  0  0  0
    9.4651   -3.2038    0.0000 O   0  0  0  0  0  0  0  0  0  0  0  0
    8.5991   -4.7038    0.0000 O   0  0  0  0  0  0  0  0  0  0  0  0
   14.6613   -7.2038    0.0000 O   0  0  0  0  0  0  0  0  0  0  0  0
   16.3933   -6.2038    0.0000 O   0  0  0  0  0  0  0  0  0  0  0  0
    7.7331   -7.2038    0.0000 O   0  0  0  0  0  0  0  0  0  0  0  0
   16.3933   -4.2038    0.0000 O   0  0  0  0  0  0  0  0  0  0  0  0
    6.0010   -6.2038    0.0000 O   0  0  0  0  0  0  0  0  0  0  0  0
    6.0010   -4.2038    0.0000 O   0  0  0  0  0  0  0  0  0  0  0  0
    5.1350   -5.7038    0.0000 O   0  0  0  0  0  0  0  0  0  0  0  0
    4.2690   -3.2038    0.0000 O   0  0  0  0  0  0  0  0  0  0  0  0
    2.5369   -4.2038    0.0000 O   0  0  0  0  0  0  0  0  0  0  0  0
    2.5369   -6.2038    0.0000 O   0  0  0  0  0  0  0  0  0  0  0  0
   12.9585    1.9931    0.0000 C   0  0  3  0  0  0  0  0  0  0  0  0
   13.8264    1.4965    0.0000 C   0  0  3  0  0  0  0  0  0  0  0  0
   13.1640    2.9657    0.0000 C   0  0  3  0  0  0  0  0  0  0  0  0
   13.8303    0.4965    0.0000 C   0  0  3  0  0  0  0  0  0  0  0  0
   14.1523    3.0726    0.0000 C   0  0  3  0  0  0  0  0  0  0  0  0
   12.9662   -0.0069    0.0000 C   0  0  3  0  0  0  0  0  0  0  0  0
   14.5609    2.1664    0.0000 C   0  0  0  0  0  0  0  0  0  0  0  0
   12.0944    1.4898    0.0000 C   0  0  0  0  0  0  0  0  0  0  0  0
   12.7617    3.8683    0.0000 C   0  0  3  0  0  0  0  0  0  0  0  0
   12.0983    0.4898    0.0000 C   0  0  0  0  0  0  0  0  0  0  0  0
   12.9542   -1.0484    0.0000 C   0  0  3  0  0  0  0  0  0  0  0  0
   13.4946    4.5311    0.0000 C   0  0  3  0  0  0  0  0  0  0  0  0
   12.0906    2.4898    0.0000 C   0  0  0  0  0  0  0  0  0  0  0  0
   14.7422   -0.0069    0.0000 C   0  0  0  0  0  0  0  0  0  0  0  0
   13.8542   -1.5727    0.0000 C   0  0  0  0  0  0  0  0  0  0  0  0
   12.0043   -1.5727    0.0000 C   0  0  0  0  0  0  0  0  0  0  0  0
   11.7833    4.0750    0.0000 C   0  0  0  0  0  0  0  0  0  0  0  0
   14.3019    5.1213    0.0000 C   0  0  0  0  0  0  0  0  0  0  0  0
   14.7543   -1.0484    0.0000 C   0  0  0  0  0  0  0  0  0  0  0  0
   12.0901   -0.5451    0.0000 C   0  0  0  0  0  0  0  0  0  0  0  0
   13.8668   -2.6576    0.0000 C   0  0  0  0  0  0  0  0  0  0  0  0
   11.9917   -2.6576    0.0000 C   0  0  0  0  0  0  0  0  0  0  0  0
   12.9292   -3.2038    0.0000 C   0  0  3  0  0  0  0  0  0  0  0  0
   14.1944    6.1155    0.0000 C   0  0  0  0  0  0  0  0  0  0  0  0
   13.2796    6.5195    0.0000 C   0  0  3  0  0  0  0  0  0  0  0  0
   12.4724    5.9293    0.0000 C   0  0  0  0  0  0  0  0  0  0  0  0
   13.1721    7.5138    0.0000 C   0  0  0  0  0  0  0  0  0  0  0  0
   12.0632   -4.7038    0.0000 C   0  0  3  0  0  0  0  0  0  0  0  0
   12.0632   -5.7038    0.0000 C   0  0  3  0  0  0  0  0  0  0  0  0
   11.1972   -6.2038    0.0000 C   0  0  3  0  0  0  0  0  0  0  0  0
   10.3312   -4.7038    0.0000 C   0  0  3  0  0  0  0  0  0  0  0  0
   10.3312   -5.7038    0.0000 C   0  0  3  0  0  0  0  0  0  0  0  0
    9.4651   -4.2038    0.0000 C   0  0  0  0  0  0  0  0  0  0  0  0
   13.7953   -5.7038    0.0000 C   0  0  3  0  0  0  0  0  0  0  0  0
   14.6613   -6.2038    0.0000 C   0  0  3  0  0  0  0  0  0  0  0  0
    8.5991   -5.7038    0.0000 C   0  0  3  0  0  0  0  0  0  0  0  0
   15.5273   -5.7038    0.0000 C   0  0  3  0  0  0  0  0  0  0  0  0
   14.6613   -4.2038    0.0000 C   0  0  3  0  0  0  0  0  0  0  0  0
    7.7331   -6.2038    0.0000 C   0  0  3  0  0  0  0  0  0  0  0  0
   15.5273   -4.7038    0.0000 C   0  0  3  0  0  0  0  0  0  0  0  0
    6.8671   -5.7038    0.0000 C   0  0  3  0  0  0  0  0  0  0  0  0
    7.7331   -4.2038    0.0000 C   0  0  3  0  0  0  0  0  0  0  0  0
    6.8671   -4.7038    0.0000 C   0  0  3  0  0  0  0  0  0  0  0  0
   14.6613   -3.2038    0.0000 C   0  0  0  0  0  0  0  0  0  0  0  0
    7.7331   -3.2038    0.0000 C   0  0  0  0  0  0  0  0  0  0  0  0
    5.1350   -4.7038    0.0000 C   0  0  3  0  0  0  0  0  0  0  0  0
    4.2690   -4.2038    0.0000 C   0  0  3  0  0  0  0  0  0  0  0  0
    3.4030   -4.7038    0.0000 C   0  0  3  0  0  0  0  0  0  0  0  0
    4.2690   -6.2038    0.0000 C   0  0  3  0  0  0  0  0  0  0  0  0
    3.4030   -5.7038    0.0000 C   0  0  3  0  0  0  0  0  0  0  0  0
    4.2690   -7.2038    0.0000 C   0  0  0  0  0  0  0  0  0  0  0  0
   14.3941    1.2472    0.0000 H   0  0  0  0  0  0  0  0  0  0  0  0
   12.5474    2.9004    0.0000 H   0  0  0  0  0  0  0  0  0  0  0  0
   14.3636    0.8127    0.0000 H   0  0  0  0  0  0  0  0  0  0  0  0
   14.7685    3.1406    0.0000 H   0  0  0  0  0  0  0  0  0  0  0  0
   13.5019   -0.3189    0.0000 H   0  0  0  0  0  0  0  0  0  0  0  0
   14.9283    1.6670    0.0000 H   0  0  0  0  0  0  0  0  0  0  0  0
   15.0962    2.4792    0.0000 H   0  0  0  0  0  0  0  0  0  0  0  0
   11.8801    2.0716    0.0000 H   0  0  0  0  0  0  0  0  0  0  0  0
   11.4842    1.3798    0.0000 H   0  0  0  0  0  0  0  0  0  0  0  0
   12.3719    3.3862    0.0000 H   0  0  0  0  0  0  0  0  0  0  0  0
   11.4873    0.5951    0.0000 H   0  0  0  0  0  0  0  0  0  0  0  0
   11.8885   -0.0936    0.0000 H   0  0  0  0  0  0  0  0  0  0  0  0
   12.3985    3.0279    0.0000 H   0  0  0  0  0  0  0  0  0  0  0  0
   11.5524    2.7977    0.0000 H   0  0  0  0  0  0  0  0  0  0  0  0
   11.7826    1.9517    0.0000 H   0  0  0  0  0  0  0  0  0  0  0  0
   15.3543   -0.1059    0.0000 H   0  0  0  0  0  0  0  0  0  0  0  0
   14.9445    0.5792    0.0000 H   0  0  0  0  0  0  0  0  0  0  0  0
   11.8020   -0.9866    0.0000 H   0  0  0  0  0  0  0  0  0  0  0  0
   11.3922   -1.6717    0.0000 H   0  0  0  0  0  0  0  0  0  0  0  0
   11.9114    4.6816    0.0000 H   0  0  0  0  0  0  0  0  0  0  0  0
   11.1766    4.2032    0.0000 H   0  0  0  0  0  0  0  0  0  0  0  0
   11.6551    3.4684    0.0000 H   0  0  0  0  0  0  0  0  0  0  0  0
   14.5753    4.5649    0.0000 H   0  0  0  0  0  0  0  0  0  0  0  0
   14.8974    5.2940    0.0000 H   0  0  0  0  0  0  0  0  0  0  0  0
   15.2936   -1.3543    0.0000 H   0  0  0  0  0  0  0  0  0  0  0  0
   12.4021   -0.0093    0.0000 H   0  0  0  0  0  0  0  0  0  0  0  0
   11.5543   -0.2330    0.0000 H   0  0  0  0  0  0  0  0  0  0  0  0
   11.7780   -1.0808    0.0000 H   0  0  0  0  0  0  0  0  0  0  0  0
   14.0826   -3.2389    0.0000 H   0  0  0  0  0  0  0  0  0  0  0  0
   14.4764   -2.5445    0.0000 H   0  0  0  0  0  0  0  0  0  0  0  0
   11.3821   -2.5445    0.0000 H   0  0  0  0  0  0  0  0  0  0  0  0
   11.7759   -3.2389    0.0000 H   0  0  0  0  0  0  0  0  0  0  0  0
   12.3917   -3.5127    0.0000 H   0  0  0  0  0  0  0  0  0  0  0  0
   14.8130    6.0741    0.0000 H   0  0  0  0  0  0  0  0  0  0  0  0
   14.3426    6.7176    0.0000 H   0  0  0  0  0  0  0  0  0  0  0  0
   13.7801    6.8855    0.0000 H   0  0  0  0  0  0  0  0  0  0  0  0
   12.1989    6.4858    0.0000 H   0  0  0  0  0  0  0  0  0  0  0  0
   11.8769    5.7567    0.0000 H   0  0  0  0  0  0  0  0  0  0  0  0
   13.7885    7.5804    0.0000 H   0  0  0  0  0  0  0  0  0  0  0  0
   13.1055    8.1302    0.0000 H   0  0  0  0  0  0  0  0  0  0  0  0
   12.5557    7.4471    0.0000 H   0  0  0  0  0  0  0  0  0  0  0  0
   12.0632   -4.0838    0.0000 H   0  0  0  0  0  0  0  0  0  0  0  0
   12.0632   -6.3238    0.0000 H   0  0  0  0  0  0  0  0  0  0  0  0
   10.6603   -6.5138    0.0000 H   0  0  0  0  0  0  0  0  0  0  0  0
   10.3312   -4.0838    0.0000 H   0  0  0  0  0  0  0  0  0  0  0  0
    9.7942   -5.3938    0.0000 H   0  0  0  0  0  0  0  0  0  0  0  0
    8.8546   -4.0961    0.0000 H   0  0  0  0  0  0  0  0  0  0  0  0
    9.2531   -4.7864    0.0000 H   0  0  0  0  0  0  0  0  0  0  0  0
   13.2583   -5.3938    0.0000 H   0  0  0  0  0  0  0  0  0  0  0  0
   10.6603   -7.5138    0.0000 H   0  0  0  0  0  0  0  0  0  0  0  0
   14.1244   -6.5138    0.0000 H   0  0  0  0  0  0  0  0  0  0  0  0
    8.5991   -6.3238    0.0000 H   0  0  0  0  0  0  0  0  0  0  0  0
    8.9282   -2.8938    0.0000 H   0  0  0  0  0  0  0  0  0  0  0  0
   15.5273   -6.3238    0.0000 H   0  0  0  0  0  0  0  0  0  0  0  0
   14.1244   -3.8938    0.0000 H   0  0  0  0  0  0  0  0  0  0  0  0
    7.1962   -6.5138    0.0000 H   0  0  0  0  0  0  0  0  0  0  0  0
   15.5273   -4.0838    0.0000 H   0  0  0  0  0  0  0  0  0  0  0  0
    7.4040   -5.3938    0.0000 H   0  0  0  0  0  0  0  0  0  0  0  0
   15.1982   -7.5138    0.0000 H   0  0  0  0  0  0  0  0  0  0  0  0
    8.2700   -3.8938    0.0000 H   0  0  0  0  0  0  0  0  0  0  0  0
    6.3301   -5.0138    0.0000 H   0  0  0  0  0  0  0  0  0  0  0  0
   15.2813   -3.2038    0.0000 H   0  0  0  0  0  0  0  0  0  0  0  0
   14.6613   -2.5838    0.0000 H   0  0  0  0  0  0  0  0  0  0  0  0
   14.0413   -3.2038    0.0000 H   0  0  0  0  0  0  0  0  0  0  0  0
   16.9303   -5.8938    0.0000 H   0  0  0  0  0  0  0  0  0  0  0  0
    8.2700   -7.5138    0.0000 H   0  0  0  0  0  0  0  0  0  0  0  0
   16.9303   -4.5138    0.0000 H   0  0  0  0  0  0  0  0  0  0  0  0
    8.3531   -3.2038    0.0000 H   0  0  0  0  0  0  0  0  0  0  0  0
    7.7331   -2.5838    0.0000 H   0  0  0  0  0  0  0  0  0  0  0  0
    7.1131   -3.2038    0.0000 H   0  0  0  0  0  0  0  0  0  0  0  0
    6.0010   -6.8238    0.0000 H   0  0  0  0  0  0  0  0  0  0  0  0
    5.1350   -4.0838    0.0000 H   0  0  0  0  0  0  0  0  0  0  0  0
    3.7320   -3.8938    0.0000 H   0  0  0  0  0  0  0  0  0  0  0  0
    3.9399   -5.0138    0.0000 H   0  0  0  0  0  0  0  0  0  0  0  0
    4.8059   -6.5138    0.0000 H   0  0  0  0  0  0  0  0  0  0  0  0
    3.4030   -6.3238    0.0000 H   0  0  0  0  0  0  0  0  0  0  0  0
    3.7320   -2.8938    0.0000 H   0  0  0  0  0  0  0  0  0  0  0  0
    3.6490   -7.2038    0.0000 H   0  0  0  0  0  0  0  0  0  0  0  0
    4.2690   -7.8238    0.0000 H   0  0  0  0  0  0  0  0  0  0  0  0
    4.8890   -7.2038    0.0000 H   0  0  0  0  0  0  0  0  0  0  0  0
    2.0000   -4.5138    0.0000 H   0  0  0  0  0  0  0  0  0  0  0  0
    2.5369   -6.8238    0.0000 H   0  0  0  0  0  0  0  0  0  0  0  0
  1 25  1  0  0  0  0
  1 32  1  0  0  0  0
  2 32  1  0  0  0  0
  2 46  1  0  0  0  0
  3 43  1  0  0  0  0
  3 48  1  0  0  0  0
  4 48  1  0  0  0  0
  4 51  1  0  0  0  0
  5 49  1  0  0  0  0
  5 54  1  0  0  0  0
  6 50  1  0  0  0  0
  6121  1  0  0  0  0
  7 52  1  0  0  0  0
  7 56  1  0  0  0  0
  8 54  1  0  0  0  0
  8 58  1  0  0  0  0
  9 53  1  0  0  0  0
  9124  1  0  0  0  0
 10 56  1  0  0  0  0
 10 62  1  0  0  0  0
 11 55  1  0  0  0  0
 11130  1  0  0  0  0
 12 57  1  0  0  0  0
 12136  1  0  0  0  0
 13 59  1  0  0  0  0
 13137  1  0  0  0  0
 14 60  1  0  0  0  0
 14138  1  0  0  0  0
 15 61  1  0  0  0  0
 15142  1  0  0  0  0
 16 63  1  0  0  0  0
 16 66  1  0  0  0  0
 17 66  1  0  0  0  0
 17 69  1  0  0  0  0
 18 67  1  0  0  0  0
 18148  1  0  0  0  0
 19 68  1  0  0  0  0
 19152  1  0  0  0  0
 20 70  1  0  0  0  0
 20153  1  0  0  0  0
 21 22  1  0  0  0  0
 21 23  1  0  0  0  0
 21 28  1  0  0  0  0
 21 33  1  0  0  0  0
 22 24  1  0  0  0  0
 22 27  1  0  0  0  0
 22 72  1  0  0  0  0
 23 25  1  0  0  0  0
 23 29  1  0  0  0  0
 23 73  1  0  0  0  0
 24 26  1  0  0  0  0
 24 34  1  0  0  0  0
 24 74  1  0  0  0  0
 25 27  1  0  0  0  0
 25 75  1  0  0  0  0
 26 30  1  0  0  0  0
 26 31  1  0  0  0  0
 26 76  1  0  0  0  0
 27 77  1  0  0  0  0
 27 78  1  0  0  0  0
 28 30  1  0  0  0  0
 28 79  1  0  0  0  0
 28 80  1  0  0  0  0
 29 32  1  0  0  0  0
 29 37  1  0  0  0  0
 29 81  1  0  0  0  0
 30 82  1  0  0  0  0
 30 83  1  0  0  0  0
 31 35  1  0  0  0  0
 31 36  1  0  0  0  0
 31 40  1  0  0  0  0
 32 38  1  0  0  0  0
 33 84  1  0  0  0  0
 33 85  1  0  0  0  0
 33 86  1  0  0  0  0
 34 39  1  0  0  0  0
 34 87  1  0  0  0  0
 34 88  1  0  0  0  0
 35 39  2  0  0  0  0
 35 41  1  0  0  0  0
 36 42  1  0  0  0  0
 36 89  1  0  0  0  0
 36 90  1  0  0  0  0
 37 91  1  0  0  0  0
 37 92  1  0  0  0  0
 37 93  1  0  0  0  0
 38 44  1  0  0  0  0
 38 94  1  0  0  0  0
 38 95  1  0  0  0  0
 39 96  1  0  0  0  0
 40 97  1  0  0  0  0
 40 98  1  0  0  0  0
 40 99  1  0  0  0  0
 41 43  1  0  0  0  0
 41100  1  0  0  0  0
 41101  1  0  0  0  0
 42 43  1  0  0  0  0
 42102  1  0  0  0  0
 42103  1  0  0  0  0
 43104  1  0  0  0  0
 44 45  1  0  0  0  0
 44105  1  0  0  0  0
 44106  1  0  0  0  0
 45 46  1  0  0  0  0
 45 47  1  0  0  0  0
 45107  1  0  0  0  0
 46108  1  0  0  0  0
 46109  1  0  0  0  0
 47110  1  0  0  0  0
 47111  1  0  0  0  0
 47112  1  0  0  0  0
 48 49  1  0  0  0  0
 48113  1  0  0  0  0
 49 50  1  0  0  0  0
 49114  1  0  0  0  0
 50 52  1  0  0  0  0
 50115  1  0  0  0  0
 51 52  1  0  0  0  0
 51 53  1  0  0  0  0
 51116  1  0  0  0  0
 52117  1  0  0  0  0
 53118  1  0  0  0  0
 53119  1  0  0  0  0
 54 55  1  0  0  0  0
 54120  1  0  0  0  0
 55 57  1  0  0  0  0
 55122  1  0  0  0  0
 56 59  1  0  0  0  0
 56123  1  0  0  0  0
 57 60  1  0  0  0  0
 57125  1  0  0  0  0
 58 60  1  0  0  0  0
 58 64  1  0  0  0  0
 58126  1  0  0  0  0
 59 61  1  0  0  0  0
 59127  1  0  0  0  0
 60128  1  0  0  0  0
 61 63  1  0  0  0  0
 61129  1  0  0  0  0
 62 63  1  0  0  0  0
 62 65  1  0  0  0  0
 62131  1  0  0  0  0
 63132  1  0  0  0  0
 64133  1  0  0  0  0
 64134  1  0  0  0  0
 64135  1  0  0  0  0
 65139  1  0  0  0  0
 65140  1  0  0  0  0
 65141  1  0  0  0  0
 66 67  1  0  0  0  0
 66143  1  0  0  0  0
 67 68  1  0  0  0  0
 67144  1  0  0  0  0
 68 70  1  0  0  0  0
 68145  1  0  0  0  0
 69 70  1  0  0  0  0
 69 71  1  0  0  0  0
 69146  1  0  0  0  0
 70147  1  0  0  0  0
 71149  1  0  0  0  0
 71150  1  0  0  0  0
 71151  1  0  0  0  0
M  END
> <PUBCHEM_COMPOUND_CID>
328441

> <PUBCHEM_COMPOUND_CANONICALIZED>
1

> <PUBCHEM_CACTVS_COMPLEXITY>
1900

> <PUBCHEM_CACTVS_HBOND_ACCEPTOR>
20

> <PUBCHEM_CACTVS_HBOND_DONOR>
10

> <PUBCHEM_CACTVS_ROTATABLE_BOND>
9

> <PUBCHEM_CACTVS_SUBSKEYS>
AAADcfB8PgAAAAAAAAAAAAAAAAAAAaIAAAA0aJEiQAASAGCAAAAAGgAACAAADxSwgAMCCAAABgCAAiBCAAAAAAAgAAAACAAAAAgREAIAAQAiQAAFwAAPAAPA4PwPgAAAAAAAAADAAAQAACAAAYAADAAAAA==

> <PUBCHEM_IUPAC_OPENEYE_NAME>
2-[4,5-dihydroxy-6-[4-hydroxy-2-(hydroxymethyl)-6-(5',7,9,13-tetramethylspiro[5-oxapentacyclo[10.8.0.02,9.04,8.013,18]icos-18-ene-6,2'-tetrahydropyran]-16-yl)oxy-5-(3,4,5-trihydroxy-6-methyl-tetrahydropyran-2-yl)oxy-tetrahydropyran-3-yl]oxy-2-methyl-tetrahydropyran-3-yl]oxy-6-methyl-tetrahydropyran-3,4,5-triol

> <PUBCHEM_IUPAC_CAS_NAME>
2-[[4,5-dihydroxy-6-[[4-hydroxy-2-(hydroxymethyl)-6-[(5',7,9,13-tetramethyl-16-spiro[5-oxapentacyclo[10.8.0.02,9.04,8.013,18]eicos-18-ene-6,2'-oxane]yl)oxy]-5-[(3,4,5-trihydroxy-6-methyl-2-oxanyl)oxy]-3-oxanyl]oxy]-2-methyl-3-oxanyl]oxy]-6-methyloxane-3,4,5-triol

> <PUBCHEM_IUPAC_NAME_MARKUP>
2-[4,5-dihydroxy-6-[4-hydroxy-2-(hydroxymethyl)-6-(5&apos;,7,9,13-tetramethylspiro[5-oxapentacyclo[10.8.0.0<SUP>2,9</SUP>.0<SUP>4,8</SUP>.0<SUP>13,18</SUP>]icos-18-ene-6,2&apos;-oxane]-16-yl)oxy-5-(3,4,5-trihydroxy-6-methyloxan-2-yl)oxyoxan-3-yl]oxy-2-methyloxan-3-yl]oxy-6-methyloxane-3,4,5-triol

> <PUBCHEM_IUPAC_NAME>
2-[4,5-dihydroxy-6-[4-hydroxy-2-(hydroxymethyl)-6-(5',7,9,13-tetramethylspiro[5-oxapentacyclo[10.8.0.02,9.04,8.013,18]icos-18-ene-6,2'-oxane]-16-yl)oxy-5-(3,4,5-trihydroxy-6-methyloxan-2-yl)oxyoxan-3-yl]oxy-2-methyloxan-3-yl]oxy-6-methyloxane-3,4,5-triol

> <PUBCHEM_IUPAC_SYSTEMATIC_NAME>
2-[6-[2-(hydroxymethyl)-5-[6-methyl-3,4,5-tris(oxidanyl)oxan-2-yl]oxy-4-oxidanyl-6-(5',7,9,13-tetramethylspiro[5-oxapentacyclo[10.8.0.02,9.04,8.013,18]icos-18-ene-6,2'-oxane]-16-yl)oxy-oxan-3-yl]oxy-2-methyl-4,5-bis(oxidanyl)oxan-3-yl]oxy-6-methyl-oxane-3,4,5-triol

> <PUBCHEM_IUPAC_TRADITIONAL_NAME>
2-[4,5-dihydroxy-6-[4-hydroxy-2-methylol-6-(5',7,9,13-tetramethylspiro[5-oxapentacyclo[10.8.0.02,9.04,8.013,18]eicos-18-ene-6,2'-tetrahydropyran]-16-yl)oxy-5-(3,4,5-trihydroxy-6-methyl-tetrahydropyran-2-yl)oxy-tetrahydropyran-3-yl]oxy-2-methyl-tetrahydropyran-3-yl]oxy-6-methyl-tetrahydropyran-3,4,5-triol

> <PUBCHEM_IUPAC_INCHI>
InChI=1S/C51H82O20/c1-20-10-15-51(62-19-20)21(2)32-30(71-51)17-29-27-9-8-25-16-26(11-13-49(25,6)28(27)12-14-50(29,32)7)66-48-44(70-46-39(59)36(56)34(54)23(4)64-46)41(61)43(31(18-52)67-48)69-47-40(60)37(57)42(24(5)65-47)68-45-38(58)35(55)33(53)22(3)63-45/h8,20-24,26-48,52-61H,9-19H2,1-7H3

> <PUBCHEM_IUPAC_INCHIKEY>
OZIHYFWYFUSXIS-UHFFFAOYSA-N

> <PUBCHEM_XLOGP3_AA>
0.2

> <PUBCHEM_EXACT_MASS>
1014.539945

> <PUBCHEM_MOLECULAR_FORMULA>
C51H82O20

> <PUBCHEM_MOLECULAR_WEIGHT>
1015.2

> <PUBCHEM_OPENEYE_CAN_SMILES>
CC1CCC2(C(C3C(O2)CC4C3(CCC5C4CC=C6C5(CCC(C6)OC7C(C(C(C(O7)CO)OC8C(C(C(C(O8)C)OC9C(C(C(C(O9)C)O)O)O)O)O)O)OC2C(C(C(C(O2)C)O)O)O)C)C)C)OC1

> <PUBCHEM_OPENEYE_ISO_SMILES>
CC1CCC2(C(C3C(O2)CC4C3(CCC5C4CC=C6C5(CCC(C6)OC7C(C(C(C(O7)CO)OC8C(C(C(C(O8)C)OC9C(C(C(C(O9)C)O)O)O)O)O)O)OC2C(C(C(C(O2)C)O)O)O)C)C)C)OC1

> <PUBCHEM_CACTVS_TPSA>
295

> <PUBCHEM_MONOISOTOPIC_WEIGHT>
1014.539945

> <PUBCHEM_TOTAL_CHARGE>
0

> <PUBCHEM_HEAVY_ATOM_COUNT>
71

> <PUBCHEM_ATOM_DEF_STEREO_COUNT>
0

> <PUBCHEM_ATOM_UDEF_STEREO_COUNT>
31

> <PUBCHEM_BOND_DEF_STEREO_COUNT>
0

> <PUBCHEM_BOND_UDEF_STEREO_COUNT>
0

> <PUBCHEM_ISOTOPIC_ATOM_COUNT>
0

> <PUBCHEM_COMPONENT_COUNT>
1

> <PUBCHEM_CACTVS_TAUTO_COUNT>
-1

> <PUBCHEM_COORDINATE_TYPE>
1
5
255

> <PUBCHEM_BONDANNOTATIONS>
55  11  3
57  12  3
59  13  3
60  14  3
61  15  3
63  16  3
66  16  3
67  18  3
68  19  3
70  20  3
21  33  3
22  27  3
23  29  3
24  34  3
25  27  3
26  30  3
29  37  3
43  3  3
48  3  3
31  40  3
32  38  3
45  47  3
49  5  3
54  5  3
51  53  3
58  64  3
50  6  3
62  65  3
69  71  3
52  7  3
56  7  3

$$$$
