44226432
  -OEChem-09152005382D

154163  0     1  0  0  0  0  0999 V2000
   13.3465    3.2882    0.0000 O   0  0  0  0  0  0  0  0  0  0  0  0
   13.8905    1.3786    0.0000 O   0  0  0  0  0  0  0  0  0  0  0  0
    7.7331    1.1024    0.0000 O   0  0  0  0  0  0  0  0  0  0  0  0
   14.1745    4.0091    0.0000 O   0  0  0  0  0  0  0  0  0  0  0  0
   13.7705    0.2746    0.0000 O   0  0  0  0  0  0  0  0  0  0  0  0
   16.0866    3.4226    0.0000 O   0  0  0  0  0  0  0  0  0  0  0  0
    4.9820    3.4472    0.0000 O   0  0  0  0  0  0  0  0  0  0  0  0
    6.0010    1.1024    0.0000 O   0  0  0  0  0  0  0  0  0  0  0  0
   17.2666    2.1547    0.0000 O   0  0  0  0  0  0  0  0  0  0  0  0
    7.5098   -1.1636    0.0000 O   0  0  0  0  0  0  0  0  0  0  0  0
    6.0010   -1.8976    0.0000 O   0  0  0  0  0  0  0  0  0  0  0  0
   17.5506    4.7852    0.0000 O   0  0  0  0  0  0  0  0  0  0  0  0
    4.2690   -0.8976    0.0000 O   0  0  0  0  0  0  0  0  0  0  0  0
   19.4626    4.1986    0.0000 O   0  0  0  0  0  0  0  0  0  0  0  0
   19.9107    2.2494    0.0000 O   0  0  0  0  0  0  0  0  0  0  0  0
    9.2156   -0.8628    0.0000 O   0  0  0  0  0  0  0  0  0  0  0  0
    4.2690    2.1024    0.0000 O   0  0  0  0  0  0  0  0  0  0  0  0
    4.2690   -1.8976    0.0000 O   0  0  0  0  0  0  0  0  0  0  0  0
    7.8572   -3.1332    0.0000 O   0  0  0  0  0  0  0  0  0  0  0  0
    9.7365   -3.8173    0.0000 O   0  0  0  0  0  0  0  0  0  0  0  0
    6.0010   -3.8976    0.0000 O   0  0  0  0  0  0  0  0  0  0  0  0
   11.2686   -2.5317    0.0000 O   0  0  0  0  0  0  0  0  0  0  0  0
    4.2690   -4.8976    0.0000 O   0  0  0  0  0  0  0  0  0  0  0  0
    2.5369   -3.8976    0.0000 O   0  0  0  0  0  0  0  0  0  0  0  0
   11.0729    2.3060    0.0000 C   0  0  1  0  0  0  0  0  0  0  0  0
   10.7491    3.2521    0.0000 C   0  0  2  0  0  0  0  0  0  0  0  0
   12.0669    2.3241    0.0000 C   0  0  2  0  0  0  0  0  0  0  0  0
    9.7678    3.4446    0.0000 C   0  0  1  0  0  0  0  0  0  0  0  0
   12.3584    3.2744    0.0000 C   0  0  2  0  0  0  0  0  0  0  0  0
    9.1104    2.6911    0.0000 C   0  0  2  0  0  0  0  0  0  0  0  0
   11.5456    3.8468    0.0000 C   0  0  0  0  0  0  0  0  0  0  0  0
   10.4155    1.5524    0.0000 C   0  0  0  0  0  0  0  0  0  0  0  0
   12.8773    1.7586    0.0000 C   0  0  1  0  0  0  0  0  0  0  0  0
    9.4342    1.7450    0.0000 C   0  0  0  0  0  0  0  0  0  0  0  0
    8.0853    2.8760    0.0000 C   0  0  2  0  0  0  0  0  0  0  0  0
   13.6665    2.3532    0.0000 C   0  0  1  0  0  0  0  0  0  0  0  0
   11.3968    1.3598    0.0000 C   0  0  0  0  0  0  0  0  0  0  0  0
    9.4457    4.4352    0.0000 C   0  0  0  0  0  0  0  0  0  0  0  0
    7.7404    3.8588    0.0000 C   0  0  0  0  0  0  0  0  0  0  0  0
    7.3911    2.0421    0.0000 C   0  0  1  0  0  0  0  0  0  0  0  0
   14.3985    3.0345    0.0000 C   0  0  2  0  0  0  0  0  0  0  0  0
   12.8955    0.7588    0.0000 C   0  0  0  0  0  0  0  0  0  0  0  0
    8.4252    4.6437    0.0000 C   0  0  0  0  0  0  0  0  0  0  0  0
    8.4164    1.9324    0.0000 C   0  0  0  0  0  0  0  0  0  0  0  0
    6.6773    4.0760    0.0000 C   0  0  0  0  0  0  0  0  0  0  0  0
    6.3233    2.2347    0.0000 C   0  0  0  0  0  0  0  0  0  0  0  0
   15.3546    2.7412    0.0000 C   0  0  2  0  0  0  0  0  0  0  0  0
    5.9640    3.2584    0.0000 C   0  0  2  0  0  0  0  0  0  0  0  0
   15.5786    1.7667    0.0000 C   0  0  2  0  0  0  0  0  0  0  0  0
   14.8466    1.0854    0.0000 C   0  0  0  0  0  0  0  0  0  0  0  0
    6.8671    0.6024    0.0000 C   0  0  2  0  0  0  0  0  0  0  0  0
   16.5346    1.4734    0.0000 C   0  0  0  0  0  0  0  0  0  0  0  0
   17.0426    3.1293    0.0000 C   0  0  2  0  0  0  0  0  0  0  0  0
    6.8671   -0.3976    0.0000 C   0  0  1  0  0  0  0  0  0  0  0  0
    6.0010   -0.8976    0.0000 C   0  0  2  0  0  0  0  0  0  0  0  0
   17.7746    3.8106    0.0000 C   0  0  1  0  0  0  0  0  0  0  0  0
    5.1350    0.6024    0.0000 C   0  0  1  0  0  0  0  0  0  0  0  0
    5.1350   -0.3976    0.0000 C   0  0  1  0  0  0  0  0  0  0  0  0
   18.7306    3.5173    0.0000 C   0  0  2  0  0  0  0  0  0  0  0  0
   18.2226    1.8614    0.0000 C   0  0  1  0  0  0  0  0  0  0  0  0
   18.9546    2.5427    0.0000 C   0  0  2  0  0  0  0  0  0  0  0  0
    4.2690    1.1024    0.0000 C   0  0  0  0  0  0  0  0  0  0  0  0
    8.4495   -1.5056    0.0000 C   0  0  2  0  0  0  0  0  0  0  0  0
   18.4466    0.8868    0.0000 C   0  0  0  0  0  0  0  0  0  0  0  0
    5.1350   -2.3976    0.0000 C   0  0  2  0  0  0  0  0  0  0  0  0
    8.6232   -2.4904    0.0000 C   0  0  1  0  0  0  0  0  0  0  0  0
    9.5629   -2.8324    0.0000 C   0  0  1  0  0  0  0  0  0  0  0  0
    5.1350   -3.3976    0.0000 C   0  0  1  0  0  0  0  0  0  0  0  0
   10.1553   -1.2049    0.0000 C   0  0  2  0  0  0  0  0  0  0  0  0
   10.3289   -2.1897    0.0000 C   0  0  2  0  0  0  0  0  0  0  0  0
    4.2690   -3.8976    0.0000 C   0  0  2  0  0  0  0  0  0  0  0  0
    3.4030   -2.3976    0.0000 C   0  0  0  0  0  0  0  0  0  0  0  0
    3.4030   -3.3976    0.0000 C   0  0  1  0  0  0  0  0  0  0  0  0
   10.9213   -0.5621    0.0000 C   0  0  0  0  0  0  0  0  0  0  0  0
   10.5605    4.0809    0.0000 H   0  0  0  0  0  0  0  0  0  0  0  0
   11.8193    1.5109    0.0000 H   0  0  0  0  0  0  0  0  0  0  0  0
   10.3316    4.0808    0.0000 H   0  0  0  0  0  0  0  0  0  0  0  0
   12.6094    4.0865    0.0000 H   0  0  0  0  0  0  0  0  0  0  0  0
    9.9445    2.5274    0.0000 H   0  0  0  0  0  0  0  0  0  0  0  0
   11.9539    4.3134    0.0000 H   0  0  0  0  0  0  0  0  0  0  0  0
   11.1245    4.3019    0.0000 H   0  0  0  0  0  0  0  0  0  0  0  0
   10.1923    0.9740    0.0000 H   0  0  0  0  0  0  0  0  0  0  0  0
   10.9464    1.2322    0.0000 H   0  0  0  0  0  0  0  0  0  0  0  0
   13.4346    1.4870    0.0000 H   0  0  0  0  0  0  0  0  0  0  0  0
    8.8217    1.6492    0.0000 H   0  0  0  0  0  0  0  0  0  0  0  0
    9.4223    1.1252    0.0000 H   0  0  0  0  0  0  0  0  0  0  0  0
   10.8102    1.1591    0.0000 H   0  0  0  0  0  0  0  0  0  0  0  0
   11.5976    0.7733    0.0000 H   0  0  0  0  0  0  0  0  0  0  0  0
   11.9834    1.5606    0.0000 H   0  0  0  0  0  0  0  0  0  0  0  0
   10.0594    4.5232    0.0000 H   0  0  0  0  0  0  0  0  0  0  0  0
    9.4640    5.0550    0.0000 H   0  0  0  0  0  0  0  0  0  0  0  0
    8.0018    1.9356    0.0000 H   0  0  0  0  0  0  0  0  0  0  0  0
   13.8058    3.2164    0.0000 H   0  0  0  0  0  0  0  0  0  0  0  0
   12.2830    0.8553    0.0000 H   0  0  0  0  0  0  0  0  0  0  0  0
   12.6941    0.1724    0.0000 H   0  0  0  0  0  0  0  0  0  0  0  0
    8.2266    5.2311    0.0000 H   0  0  0  0  0  0  0  0  0  0  0  0
    7.8314    1.7271    0.0000 H   0  0  0  0  0  0  0  0  0  0  0  0
    8.6217    1.3474    0.0000 H   0  0  0  0  0  0  0  0  0  0  0  0
    9.0014    2.1377    0.0000 H   0  0  0  0  0  0  0  0  0  0  0  0
    6.9035    4.6533    0.0000 H   0  0  0  0  0  0  0  0  0  0  0  0
    6.1473    4.3976    0.0000 H   0  0  0  0  0  0  0  0  0  0  0  0
    5.7118    2.1325    0.0000 H   0  0  0  0  0  0  0  0  0  0  0  0
    6.3193    1.6147    0.0000 H   0  0  0  0  0  0  0  0  0  0  0  0
   15.2157    3.3455    0.0000 H   0  0  0  0  0  0  0  0  0  0  0  0
    5.5591    2.7889    0.0000 H   0  0  0  0  0  0  0  0  0  0  0  0
   16.0324    2.1891    0.0000 H   0  0  0  0  0  0  0  0  0  0  0  0
   14.5646    0.5332    0.0000 H   0  0  0  0  0  0  0  0  0  0  0  0
   15.3414    0.7118    0.0000 H   0  0  0  0  0  0  0  0  0  0  0  0
   14.6283    4.4315    0.0000 H   0  0  0  0  0  0  0  0  0  0  0  0
   13.7818   -0.3453    0.0000 H   0  0  0  0  0  0  0  0  0  0  0  0
    7.4040    0.2924    0.0000 H   0  0  0  0  0  0  0  0  0  0  0  0
   16.3528    0.8806    0.0000 H   0  0  0  0  0  0  0  0  0  0  0  0
   17.1273    1.2916    0.0000 H   0  0  0  0  0  0  0  0  0  0  0  0
   16.7164    2.0661    0.0000 H   0  0  0  0  0  0  0  0  0  0  0  0
    4.7790    4.0331    0.0000 H   0  0  0  0  0  0  0  0  0  0  0  0
   16.9037    3.7335    0.0000 H   0  0  0  0  0  0  0  0  0  0  0  0
    7.4497   -0.1855    0.0000 H   0  0  0  0  0  0  0  0  0  0  0  0
    6.5380   -1.2076    0.0000 H   0  0  0  0  0  0  0  0  0  0  0  0
   18.2284    4.2330    0.0000 H   0  0  0  0  0  0  0  0  0  0  0  0
    5.1350    1.2224    0.0000 H   0  0  0  0  0  0  0  0  0  0  0  0
    4.5981   -0.0876    0.0000 H   0  0  0  0  0  0  0  0  0  0  0  0
   19.3233    3.3354    0.0000 H   0  0  0  0  0  0  0  0  0  0  0  0
   17.7688    1.4390    0.0000 H   0  0  0  0  0  0  0  0  0  0  0  0
   19.4085    2.9651    0.0000 H   0  0  0  0  0  0  0  0  0  0  0  0
    3.6584    1.2101    0.0000 H   0  0  0  0  0  0  0  0  0  0  0  0
    4.0569    0.5198    0.0000 H   0  0  0  0  0  0  0  0  0  0  0  0
    8.3419   -0.8950    0.0000 H   0  0  0  0  0  0  0  0  0  0  0  0
   18.0044    5.2076    0.0000 H   0  0  0  0  0  0  0  0  0  0  0  0
    3.7320   -0.5876    0.0000 H   0  0  0  0  0  0  0  0  0  0  0  0
   17.8424    0.7479    0.0000 H   0  0  0  0  0  0  0  0  0  0  0  0
   18.5855    0.2826    0.0000 H   0  0  0  0  0  0  0  0  0  0  0  0
   19.0509    1.0257    0.0000 H   0  0  0  0  0  0  0  0  0  0  0  0
    5.1350   -1.7776    0.0000 H   0  0  0  0  0  0  0  0  0  0  0  0
    8.0406   -2.2784    0.0000 H   0  0  0  0  0  0  0  0  0  0  0  0
   20.0554    4.0168    0.0000 H   0  0  0  0  0  0  0  0  0  0  0  0
   20.0496    1.6452    0.0000 H   0  0  0  0  0  0  0  0  0  0  0  0
    3.7320    2.4124    0.0000 H   0  0  0  0  0  0  0  0  0  0  0  0
    9.0879   -3.2310    0.0000 H   0  0  0  0  0  0  0  0  0  0  0  0
    5.1350   -4.0176    0.0000 H   0  0  0  0  0  0  0  0  0  0  0  0
   10.0476   -0.5943    0.0000 H   0  0  0  0  0  0  0  0  0  0  0  0
   10.4366   -2.8002    0.0000 H   0  0  0  0  0  0  0  0  0  0  0  0
    3.7320   -4.2076    0.0000 H   0  0  0  0  0  0  0  0  0  0  0  0
    7.9648   -3.7438    0.0000 H   0  0  0  0  0  0  0  0  0  0  0  0
    3.1909   -1.8150    0.0000 H   0  0  0  0  0  0  0  0  0  0  0  0
    2.7924   -2.5052    0.0000 H   0  0  0  0  0  0  0  0  0  0  0  0
    2.8660   -3.0876    0.0000 H   0  0  0  0  0  0  0  0  0  0  0  0
   11.3199   -1.0370    0.0000 H   0  0  0  0  0  0  0  0  0  0  0  0
   11.3963   -0.1635    0.0000 H   0  0  0  0  0  0  0  0  0  0  0  0
   10.5228   -0.0871    0.0000 H   0  0  0  0  0  0  0  0  0  0  0  0
   10.3191   -4.0293    0.0000 H   0  0  0  0  0  0  0  0  0  0  0  0
    6.0010   -4.5176    0.0000 H   0  0  0  0  0  0  0  0  0  0  0  0
   11.3763   -3.1423    0.0000 H   0  0  0  0  0  0  0  0  0  0  0  0
    3.7320   -5.2076    0.0000 H   0  0  0  0  0  0  0  0  0  0  0  0
    2.0000   -3.5876    0.0000 H   0  0  0  0  0  0  0  0  0  0  0  0
  1 29  1  0  0  0  0
 36  1  1  1  0  0  0
  2 36  1  0  0  0  0
  2 50  1  0  0  0  0
 40  3  1  6  0  0  0
 51  3  1  1  0  0  0
 41  4  1  1  0  0  0
  4109  1  0  0  0  0
  5 42  1  0  0  0  0
  5110  1  0  0  0  0
 47  6  1  1  0  0  0
 53  6  1  1  0  0  0
 48  7  1  6  0  0  0
  7115  1  0  0  0  0
  8 51  1  0  0  0  0
  8 57  1  0  0  0  0
  9 53  1  0  0  0  0
  9 60  1  0  0  0  0
 54 10  1  6  0  0  0
 63 10  1  6  0  0  0
 55 11  1  1  0  0  0
 65 11  1  1  0  0  0
 56 12  1  6  0  0  0
 12128  1  0  0  0  0
 58 13  1  6  0  0  0
 13129  1  0  0  0  0
 59 14  1  1  0  0  0
 14135  1  0  0  0  0
 61 15  1  1  0  0  0
 15136  1  0  0  0  0
 16 63  1  0  0  0  0
 16 69  1  0  0  0  0
 17 62  1  0  0  0  0
 17137  1  0  0  0  0
 18 65  1  0  0  0  0
 18 72  1  0  0  0  0
 66 19  1  1  0  0  0
 19143  1  0  0  0  0
 67 20  1  1  0  0  0
 20150  1  0  0  0  0
 68 21  1  6  0  0  0
 21151  1  0  0  0  0
 70 22  1  6  0  0  0
 22152  1  0  0  0  0
 71 23  1  1  0  0  0
 23153  1  0  0  0  0
 73 24  1  6  0  0  0
 24154  1  0  0  0  0
 25 26  1  0  0  0  0
 25 27  1  0  0  0  0
 25 32  1  0  0  0  0
 25 37  1  6  0  0  0
 26 28  1  0  0  0  0
 26 31  1  0  0  0  0
 26 75  1  1  0  0  0
 27 29  1  0  0  0  0
 27 33  1  0  0  0  0
 27 76  1  1  0  0  0
 28 30  1  0  0  0  0
 28 38  1  0  0  0  0
 28 77  1  6  0  0  0
 29 31  1  0  0  0  0
 29 78  1  1  0  0  0
 30 34  1  0  0  0  0
 30 35  1  0  0  0  0
 30 79  1  1  0  0  0
 31 80  1  0  0  0  0
 31 81  1  0  0  0  0
 32 34  1  0  0  0  0
 32 82  1  0  0  0  0
 32 83  1  0  0  0  0
 33 36  1  0  0  0  0
 33 42  1  1  0  0  0
 33 84  1  0  0  0  0
 34 85  1  0  0  0  0
 34 86  1  0  0  0  0
 35 39  1  0  0  0  0
 35 40  1  0  0  0  0
 35 44  1  6  0  0  0
 36 41  1  0  0  0  0
 37 87  1  0  0  0  0
 37 88  1  0  0  0  0
 37 89  1  0  0  0  0
 38 43  1  0  0  0  0
 38 90  1  0  0  0  0
 38 91  1  0  0  0  0
 39 43  2  0  0  0  0
 39 45  1  0  0  0  0
 40 46  1  0  0  0  0
 40 92  1  0  0  0  0
 41 47  1  0  0  0  0
 41 93  1  0  0  0  0
 42 94  1  0  0  0  0
 42 95  1  0  0  0  0
 43 96  1  0  0  0  0
 44 97  1  0  0  0  0
 44 98  1  0  0  0  0
 44 99  1  0  0  0  0
 45 48  1  0  0  0  0
 45100  1  0  0  0  0
 45101  1  0  0  0  0
 46 48  1  0  0  0  0
 46102  1  0  0  0  0
 46103  1  0  0  0  0
 47 49  1  0  0  0  0
 47104  1  0  0  0  0
 48105  1  0  0  0  0
 49 50  1  0  0  0  0
 49 52  1  1  0  0  0
 49106  1  0  0  0  0
 50107  1  0  0  0  0
 50108  1  0  0  0  0
 51 54  1  0  0  0  0
 51111  1  0  0  0  0
 52112  1  0  0  0  0
 52113  1  0  0  0  0
 52114  1  0  0  0  0
 53 56  1  0  0  0  0
 53116  1  0  0  0  0
 54 55  1  0  0  0  0
 54117  1  0  0  0  0
 55 58  1  0  0  0  0
 55118  1  0  0  0  0
 56 59  1  0  0  0  0
 56119  1  0  0  0  0
 57 58  1  0  0  0  0
 57 62  1  1  0  0  0
 57120  1  0  0  0  0
 58121  1  0  0  0  0
 59 61  1  0  0  0  0
 59122  1  0  0  0  0
 60 61  1  0  0  0  0
 60 64  1  1  0  0  0
 60123  1  0  0  0  0
 61124  1  0  0  0  0
 62125  1  0  0  0  0
 62126  1  0  0  0  0
 63 66  1  0  0  0  0
 63127  1  0  0  0  0
 64130  1  0  0  0  0
 64131  1  0  0  0  0
 64132  1  0  0  0  0
 65 68  1  0  0  0  0
 65133  1  0  0  0  0
 66 67  1  0  0  0  0
 66134  1  0  0  0  0
 67 70  1  0  0  0  0
 67138  1  0  0  0  0
 68 71  1  0  0  0  0
 68139  1  0  0  0  0
 69 70  1  0  0  0  0
 69 74  1  1  0  0  0
 69140  1  0  0  0  0
 70141  1  0  0  0  0
 71 73  1  0  0  0  0
 71142  1  0  0  0  0
 72 73  1  0  0  0  0
 72144  1  0  0  0  0
 72145  1  0  0  0  0
 73146  1  0  0  0  0
 74147  1  0  0  0  0
 74148  1  0  0  0  0
 74149  1  0  0  0  0
M  END
> <PUBCHEM_COMPOUND_CID>
44226432

> <PUBCHEM_COMPOUND_CANONICALIZED>
1

> <PUBCHEM_CACTVS_COMPLEXITY>
1990

> <PUBCHEM_CACTVS_HBOND_ACCEPTOR>
24

> <PUBCHEM_CACTVS_HBOND_DONOR>
14

> <PUBCHEM_CACTVS_ROTATABLE_BOND>
10

> <PUBCHEM_CACTVS_SUBSKEYS>
AAADcfB8PgAAAAAAAAAAAAAAAAAAAaIAAAA0aJEiQAASAGCAAAAAGgAACAAADxSwgAMCCAAABgCAAiBCAAAAAAAgAAAACAAAAAgREAIAAQAiQAAFwAAPAAPA4PwPgAAAAAAAAADAAAQQADAAAYAADAAAAA==

> <PUBCHEM_IUPAC_OPENEYE_NAME>
(2S,3R,4S,5R,6R)-2-[(1S,2S,3'S,4S,4'S,5'S,6S,7R,8R,9S,12S,13R,14R,16R)-3',16-dihydroxy-14-[(2R,3R,4S,5R,6R)-5-hydroxy-6-(hydroxymethyl)-3-[(2S,3R,4R,5R,6S)-3,4,5-trihydroxy-6-methyl-tetrahydropyran-2-yl]oxy-4-[(2S,3R,4S,5R)-3,4,5-trihydroxytetrahydropyran-2-yl]oxy-tetrahydropyran-2-yl]oxy-7-(hydroxymethyl)-5',9,13-trimethyl-spiro[5-oxapentacyclo[10.8.0.02,9.04,8.013,18]icos-18-ene-6,2'-tetrahydropyran]-4'-yl]oxy-6-methyl-tetrahydropyran-3,4,5-triol

> <PUBCHEM_IUPAC_CAS_NAME>
(2S,3R,4S,5R,6R)-2-[[(1S,2S,3'S,4S,4'S,5'S,6S,7R,8R,9S,12S,13R,14R,16R)-3',16-dihydroxy-14-[[(2R,3R,4S,5R,6R)-5-hydroxy-6-(hydroxymethyl)-3-[[(2S,3R,4R,5R,6S)-3,4,5-trihydroxy-6-methyl-2-oxanyl]oxy]-4-[[(2S,3R,4S,5R)-3,4,5-trihydroxy-2-oxanyl]oxy]-2-oxanyl]oxy]-7-(hydroxymethyl)-5',9,13-trimethyl-4'-spiro[5-oxapentacyclo[10.8.0.02,9.04,8.013,18]eicos-18-ene-6,2'-oxane]yl]oxy]-6-methyloxane-3,4,5-triol

> <PUBCHEM_IUPAC_NAME_MARKUP>
(2<I>S</I>,3<I>R</I>,4<I>S</I>,5<I>R</I>,6<I>R</I>)-2-[(1<I>S</I>,2<I>S</I>,3&apos;<I>S</I>,4<I>S</I>,4&apos;<I>S</I>,5&apos;<I>S</I>,6<I>S</I>,7<I>R</I>,8<I>R</I>,9<I>S</I>,12<I>S</I>,13<I>R</I>,14<I>R</I>,16<I>R</I>)-3&apos;,16-dihydroxy-14-[(2<I>R</I>,3<I>R</I>,4<I>S</I>,5<I>R</I>,6<I>R</I>)-5-hydroxy-6-(hydroxymethyl)-3-[(2<I>S</I>,3<I>R</I>,4<I>R</I>,5<I>R</I>,6<I>S</I>)-3,4,5-trihydroxy-6-methyloxan-2-yl]oxy-4-[(2<I>S</I>,3<I>R</I>,4<I>S</I>,5<I>R</I>)-3,4,5-trihydroxyoxan-2-yl]oxyoxan-2-yl]oxy-7-(hydroxymethyl)-5&apos;,9,13-trimethylspiro[5-oxapentacyclo[10.8.0.0<SUP>2,9</SUP>.0<SUP>4,8</SUP>.0<SUP>13,18</SUP>]icos-18-ene-6,2&apos;-oxane]-4&apos;-yl]oxy-6-methyloxane-3,4,5-triol

> <PUBCHEM_IUPAC_NAME>
(2S,3R,4S,5R,6R)-2-[(1S,2S,3'S,4S,4'S,5'S,6S,7R,8R,9S,12S,13R,14R,16R)-3',16-dihydroxy-14-[(2R,3R,4S,5R,6R)-5-hydroxy-6-(hydroxymethyl)-3-[(2S,3R,4R,5R,6S)-3,4,5-trihydroxy-6-methyloxan-2-yl]oxy-4-[(2S,3R,4S,5R)-3,4,5-trihydroxyoxan-2-yl]oxyoxan-2-yl]oxy-7-(hydroxymethyl)-5',9,13-trimethylspiro[5-oxapentacyclo[10.8.0.02,9.04,8.013,18]icos-18-ene-6,2'-oxane]-4'-yl]oxy-6-methyloxane-3,4,5-triol

> <PUBCHEM_IUPAC_SYSTEMATIC_NAME>
(2S,3R,4S,5R,6R)-2-[(1S,2S,3'S,4S,4'S,5'S,6S,7R,8R,9S,12S,13R,14R,16R)-7-(hydroxymethyl)-14-[(2R,3R,4S,5R,6R)-6-(hydroxymethyl)-3-[(2S,3R,4R,5R,6S)-6-methyl-3,4,5-tris(oxidanyl)oxan-2-yl]oxy-5-oxidanyl-4-[(2S,3R,4S,5R)-3,4,5-tris(oxidanyl)oxan-2-yl]oxy-oxan-2-yl]oxy-5',9,13-trimethyl-3',16-bis(oxidanyl)spiro[5-oxapentacyclo[10.8.0.02,9.04,8.013,18]icos-18-ene-6,2'-oxane]-4'-yl]oxy-6-methyl-oxane-3,4,5-triol

> <PUBCHEM_IUPAC_TRADITIONAL_NAME>
(2S,3R,4S,5R,6R)-2-[(1S,2S,3'S,4S,4'S,5'S,6S,7R,8R,9S,12S,13R,14R,16R)-3',16-dihydroxy-14-[(2R,3R,4S,5R,6R)-5-hydroxy-6-methylol-3-[(2S,3R,4R,5R,6S)-3,4,5-trihydroxy-6-methyl-tetrahydropyran-2-yl]oxy-4-[(2S,3R,4S,5R)-3,4,5-trihydroxytetrahydropyran-2-yl]oxy-tetrahydropyran-2-yl]oxy-5',9,13-trimethyl-7-methylol-spiro[5-oxapentacyclo[10.8.0.02,9.04,8.013,18]eicos-18-ene-6,2'-tetrahydropyran]-4'-yl]oxy-6-methyl-tetrahydropyran-3,4,5-triol

> <PUBCHEM_IUPAC_INCHI>
InChI=1S/C50H80O24/c1-17-15-66-50(43(64)40(17)71-45-38(62)35(59)31(55)18(2)67-45)25(13-51)30-27(74-50)12-24-22-7-6-20-10-21(53)11-29(49(20,5)23(22)8-9-48(24,30)4)70-47-42(73-46-39(63)36(60)32(56)19(3)68-46)41(34(58)28(14-52)69-47)72-44-37(61)33(57)26(54)16-65-44/h6,17-19,21-47,51-64H,7-16H2,1-5H3/t17-,18+,19-,21+,22+,23-,24-,25-,26+,27-,28+,29+,30-,31-,32-,33-,34+,35-,36+,37+,38+,39+,40-,41-,42+,43-,44-,45-,46-,47-,48-,49-,50-/m0/s1

> <PUBCHEM_IUPAC_INCHIKEY>
JNECMOBFZOCNCW-UDELEKSJSA-N

> <PUBCHEM_XLOGP3_AA>
-3.8

> <PUBCHEM_EXACT_MASS>
1064.503953

> <PUBCHEM_MOLECULAR_FORMULA>
C50H80O24

> <PUBCHEM_MOLECULAR_WEIGHT>
1065.2

> <PUBCHEM_OPENEYE_CAN_SMILES>
CC1COC2(C(C3C(O2)CC4C3(CCC5C4CC=C6C5(C(CC(C6)O)OC7C(C(C(C(O7)CO)O)OC8C(C(C(CO8)O)O)O)OC9C(C(C(C(O9)C)O)O)O)C)C)CO)C(C1OC1C(C(C(C(O1)C)O)O)O)O

> <PUBCHEM_OPENEYE_ISO_SMILES>
C[C@H]1CO[C@]2([C@H]([C@H]3[C@@H](O2)C[C@@H]4[C@@]3(CC[C@H]5[C@H]4CC=C6[C@@]5([C@@H](C[C@@H](C6)O)O[C@H]7[C@@H]([C@H]([C@@H]([C@H](O7)CO)O)O[C@H]8[C@@H]([C@H]([C@@H](CO8)O)O)O)O[C@H]9[C@@H]([C@@H]([C@H]([C@@H](O9)C)O)O)O)C)C)CO)[C@H]([C@H]1O[C@H]1[C@@H]([C@H]([C@H]([C@H](O1)C)O)O)O)O

> <PUBCHEM_CACTVS_TPSA>
376

> <PUBCHEM_MONOISOTOPIC_WEIGHT>
1064.503953

> <PUBCHEM_TOTAL_CHARGE>
0

> <PUBCHEM_HEAVY_ATOM_COUNT>
74

> <PUBCHEM_ATOM_DEF_STEREO_COUNT>
33

> <PUBCHEM_ATOM_UDEF_STEREO_COUNT>
0

> <PUBCHEM_BOND_DEF_STEREO_COUNT>
0

> <PUBCHEM_BOND_UDEF_STEREO_COUNT>
0

> <PUBCHEM_ISOTOPIC_ATOM_COUNT>
0

> <PUBCHEM_COMPONENT_COUNT>
1

> <PUBCHEM_CACTVS_TAUTO_COUNT>
-1

> <PUBCHEM_COORDINATE_TYPE>
1
5
255

> <PUBCHEM_BONDANNOTATIONS>
36  1  5
54  10  6
63  10  6
55  11  5
65  11  5
56  12  6
58  13  6
59  14  5
61  15  5
66  19  5
67  20  5
68  21  6
70  22  6
71  23  5
73  24  6
25  37  6
26  75  5
27  76  5
28  77  6
29  78  5
40  3  6
51  3  5
30  79  5
33  42  5
35  44  6
41  4  5
49  52  5
57  62  5
47  6  5
53  6  5
60  64  5
69  74  5
48  7  6

$$$$
