10417550
  -OEChem-09152005112D

114121  0     1  0  0  0  0  0999 V2000
    8.2902    4.0403    0.0000 O   0  0  0  0  0  0  0  0  0  0  0  0
    6.1076    2.8582    0.0000 O   0  0  0  0  0  0  0  0  0  0  0  0
    6.5177    4.9351    0.0000 O   0  0  0  0  0  0  0  0  0  0  0  0
    6.8671   -4.2038    0.0000 O   0  0  0  0  0  0  0  0  0  0  0  0
    5.1350   -4.2038    0.0000 O   0  0  0  0  0  0  0  0  0  0  0  0
    6.8671   -6.2038    0.0000 O   0  0  0  0  0  0  0  0  0  0  0  0
    5.1350   -7.2038    0.0000 O   0  0  0  0  0  0  0  0  0  0  0  0
    3.4030   -6.2038    0.0000 O   0  0  0  0  0  0  0  0  0  0  0  0
    7.7331   -4.7038    0.0000 O   0  0  0  0  0  0  0  0  0  0  0  0
    2.5369   -4.7038    0.0000 O   0  0  0  0  0  0  0  0  0  0  0  0
    8.5991   -7.2038    0.0000 O   0  0  0  0  0  0  0  0  0  0  0  0
   10.3312   -6.2038    0.0000 O   0  0  0  0  0  0  0  0  0  0  0  0
   10.3312   -4.2038    0.0000 O   0  0  0  0  0  0  0  0  0  0  0  0
    6.8963    1.9931    0.0000 C   0  0  1  0  0  0  0  0  0  0  0  0
    7.7643    1.4965    0.0000 C   0  0  2  0  0  0  0  0  0  0  0  0
    7.1018    2.9657    0.0000 C   0  0  1  0  0  0  0  0  0  0  0  0
    7.7681    0.4965    0.0000 C   0  0  1  0  0  0  0  0  0  0  0  0
    8.0901    3.0726    0.0000 C   0  0  2  0  0  0  0  0  0  0  0  0
    6.9040   -0.0069    0.0000 C   0  0  2  0  0  0  0  0  0  0  0  0
    8.4987    2.1664    0.0000 C   0  0  0  0  0  0  0  0  0  0  0  0
    6.0322    1.4898    0.0000 C   0  0  0  0  0  0  0  0  0  0  0  0
    6.6995    3.8683    0.0000 C   0  0  1  0  0  0  0  0  0  0  0  0
    6.0361    0.4898    0.0000 C   0  0  0  0  0  0  0  0  0  0  0  0
    6.8920   -1.0484    0.0000 C   0  0  2  0  0  0  0  0  0  0  0  0
    7.4324    4.5311    0.0000 C   0  0  1  0  0  0  0  0  0  0  0  0
    5.9108    2.1630    0.0000 C   0  0  0  0  0  0  0  0  0  0  0  0
    8.6801   -0.0069    0.0000 C   0  0  0  0  0  0  0  0  0  0  0  0
    7.7920   -1.5727    0.0000 C   0  0  0  0  0  0  0  0  0  0  0  0
    5.9421   -1.5727    0.0000 C   0  0  0  0  0  0  0  0  0  0  0  0
    5.7211    4.0750    0.0000 C   0  0  0  0  0  0  0  0  0  0  0  0
    8.2397    5.1213    0.0000 C   0  0  0  0  0  0  0  0  0  0  0  0
    8.6921   -1.0484    0.0000 C   0  0  0  0  0  0  0  0  0  0  0  0
    6.0279   -0.5451    0.0000 C   0  0  0  0  0  0  0  0  0  0  0  0
    7.8046   -2.6576    0.0000 C   0  0  0  0  0  0  0  0  0  0  0  0
    5.9295   -2.6576    0.0000 C   0  0  0  0  0  0  0  0  0  0  0  0
    8.1322    6.1155    0.0000 C   0  0  0  0  0  0  0  0  0  0  0  0
    6.8671   -3.2038    0.0000 C   0  0  2  0  0  0  0  0  0  0  0  0
    6.4102    5.9293    0.0000 C   0  0  0  0  0  0  0  0  0  0  0  0
    7.2174    6.5195    0.0000 C   0  0  2  0  0  0  0  0  0  0  0  0
    7.1100    7.5138    0.0000 C   0  0  0  0  0  0  0  0  0  0  0  0
    6.0010   -4.7038    0.0000 C   0  0  2  0  0  0  0  0  0  0  0  0
    6.0010   -5.7038    0.0000 C   0  0  1  0  0  0  0  0  0  0  0  0
    5.1350   -6.2038    0.0000 C   0  0  2  0  0  0  0  0  0  0  0  0
    4.2690   -4.7038    0.0000 C   0  0  1  0  0  0  0  0  0  0  0  0
    4.2690   -5.7038    0.0000 C   0  0  1  0  0  0  0  0  0  0  0  0
    3.4030   -4.2038    0.0000 C   0  0  0  0  0  0  0  0  0  0  0  0
    7.7331   -5.7038    0.0000 C   0  0  2  0  0  0  0  0  0  0  0  0
    8.5991   -6.2038    0.0000 C   0  0  1  0  0  0  0  0  0  0  0  0
    9.4651   -5.7038    0.0000 C   0  0  1  0  0  0  0  0  0  0  0  0
    8.5991   -4.2038    0.0000 C   0  0  2  0  0  0  0  0  0  0  0  0
    9.4651   -4.7038    0.0000 C   0  0  2  0  0  0  0  0  0  0  0  0
    8.5991   -3.2038    0.0000 C   0  0  0  0  0  0  0  0  0  0  0  0
    8.5426    1.1548    0.0000 H   0  0  0  0  0  0  0  0  0  0  0  0
    8.4993    0.9300    0.0000 H   0  0  0  0  0  0  0  0  0  0  0  0
    8.9350    3.1658    0.0000 H   0  0  0  0  0  0  0  0  0  0  0  0
    7.6385   -0.4347    0.0000 H   0  0  0  0  0  0  0  0  0  0  0  0
    8.8661    1.6670    0.0000 H   0  0  0  0  0  0  0  0  0  0  0  0
    9.0340    2.4792    0.0000 H   0  0  0  0  0  0  0  0  0  0  0  0
    5.8179    2.0716    0.0000 H   0  0  0  0  0  0  0  0  0  0  0  0
    5.4221    1.3798    0.0000 H   0  0  0  0  0  0  0  0  0  0  0  0
    6.3097    3.3862    0.0000 H   0  0  0  0  0  0  0  0  0  0  0  0
    5.4251    0.5951    0.0000 H   0  0  0  0  0  0  0  0  0  0  0  0
    5.8263   -0.0936    0.0000 H   0  0  0  0  0  0  0  0  0  0  0  0
    6.0162    2.7740    0.0000 H   0  0  0  0  0  0  0  0  0  0  0  0
    5.2999    2.2683    0.0000 H   0  0  0  0  0  0  0  0  0  0  0  0
    5.8056    1.5520    0.0000 H   0  0  0  0  0  0  0  0  0  0  0  0
    9.2921   -0.1059    0.0000 H   0  0  0  0  0  0  0  0  0  0  0  0
    8.8824    0.5792    0.0000 H   0  0  0  0  0  0  0  0  0  0  0  0
    5.7416    3.3587    0.0000 H   0  0  0  0  0  0  0  0  0  0  0  0
    5.7398   -0.9866    0.0000 H   0  0  0  0  0  0  0  0  0  0  0  0
    5.3300   -1.6717    0.0000 H   0  0  0  0  0  0  0  0  0  0  0  0
    5.8492    4.6816    0.0000 H   0  0  0  0  0  0  0  0  0  0  0  0
    5.1145    4.2032    0.0000 H   0  0  0  0  0  0  0  0  0  0  0  0
    5.5929    3.4684    0.0000 H   0  0  0  0  0  0  0  0  0  0  0  0
    8.5132    4.5649    0.0000 H   0  0  0  0  0  0  0  0  0  0  0  0
    8.8352    5.2940    0.0000 H   0  0  0  0  0  0  0  0  0  0  0  0
    9.2314   -1.3543    0.0000 H   0  0  0  0  0  0  0  0  0  0  0  0
    6.3400   -0.0093    0.0000 H   0  0  0  0  0  0  0  0  0  0  0  0
    5.4922   -0.2330    0.0000 H   0  0  0  0  0  0  0  0  0  0  0  0
    5.7158   -1.0808    0.0000 H   0  0  0  0  0  0  0  0  0  0  0  0
    8.0204   -3.2389    0.0000 H   0  0  0  0  0  0  0  0  0  0  0  0
    8.4142   -2.5445    0.0000 H   0  0  0  0  0  0  0  0  0  0  0  0
    5.3199   -2.5445    0.0000 H   0  0  0  0  0  0  0  0  0  0  0  0
    5.7137   -3.2389    0.0000 H   0  0  0  0  0  0  0  0  0  0  0  0
    8.7508    6.0741    0.0000 H   0  0  0  0  0  0  0  0  0  0  0  0
    8.2804    6.7176    0.0000 H   0  0  0  0  0  0  0  0  0  0  0  0
    7.4046   -3.5127    0.0000 H   0  0  0  0  0  0  0  0  0  0  0  0
    6.1367    6.4858    0.0000 H   0  0  0  0  0  0  0  0  0  0  0  0
    5.8147    5.7567    0.0000 H   0  0  0  0  0  0  0  0  0  0  0  0
    7.7180    6.8855    0.0000 H   0  0  0  0  0  0  0  0  0  0  0  0
    7.7264    7.5804    0.0000 H   0  0  0  0  0  0  0  0  0  0  0  0
    7.0433    8.1302    0.0000 H   0  0  0  0  0  0  0  0  0  0  0  0
    6.4935    7.4471    0.0000 H   0  0  0  0  0  0  0  0  0  0  0  0
    6.0010   -4.0838    0.0000 H   0  0  0  0  0  0  0  0  0  0  0  0
    6.0010   -6.3238    0.0000 H   0  0  0  0  0  0  0  0  0  0  0  0
    4.5981   -6.5138    0.0000 H   0  0  0  0  0  0  0  0  0  0  0  0
    4.2690   -4.0838    0.0000 H   0  0  0  0  0  0  0  0  0  0  0  0
    4.2690   -6.3238    0.0000 H   0  0  0  0  0  0  0  0  0  0  0  0
    3.8015   -3.7288    0.0000 H   0  0  0  0  0  0  0  0  0  0  0  0
    3.0044   -3.7288    0.0000 H   0  0  0  0  0  0  0  0  0  0  0  0
    7.1962   -5.3938    0.0000 H   0  0  0  0  0  0  0  0  0  0  0  0
    4.5981   -7.5138    0.0000 H   0  0  0  0  0  0  0  0  0  0  0  0
    3.4030   -6.8238    0.0000 H   0  0  0  0  0  0  0  0  0  0  0  0
    8.0622   -6.5138    0.0000 H   0  0  0  0  0  0  0  0  0  0  0  0
    9.4651   -6.3238    0.0000 H   0  0  0  0  0  0  0  0  0  0  0  0
    2.0000   -4.3938    0.0000 H   0  0  0  0  0  0  0  0  0  0  0  0
    8.0622   -3.8938    0.0000 H   0  0  0  0  0  0  0  0  0  0  0  0
   10.0021   -5.0138    0.0000 H   0  0  0  0  0  0  0  0  0  0  0  0
    9.1360   -7.5138    0.0000 H   0  0  0  0  0  0  0  0  0  0  0  0
    9.2191   -3.2038    0.0000 H   0  0  0  0  0  0  0  0  0  0  0  0
    8.5991   -2.5838    0.0000 H   0  0  0  0  0  0  0  0  0  0  0  0
    7.9791   -3.2038    0.0000 H   0  0  0  0  0  0  0  0  0  0  0  0
   10.8681   -5.8938    0.0000 H   0  0  0  0  0  0  0  0  0  0  0  0
   10.8681   -4.5138    0.0000 H   0  0  0  0  0  0  0  0  0  0  0  0
  1 18  1  0  0  0  0
 25  1  1  6  0  0  0
 16  2  1  6  0  0  0
  2 69  1  0  0  0  0
  3 25  1  0  0  0  0
  3 38  1  0  0  0  0
 37  4  1  1  0  0  0
 41  4  1  1  0  0  0
  5 41  1  0  0  0  0
  5 44  1  0  0  0  0
 42  6  1  6  0  0  0
 47  6  1  6  0  0  0
 43  7  1  1  0  0  0
  7102  1  0  0  0  0
 45  8  1  6  0  0  0
  8103  1  0  0  0  0
  9 47  1  0  0  0  0
  9 50  1  0  0  0  0
 10 46  1  0  0  0  0
 10106  1  0  0  0  0
 48 11  1  1  0  0  0
 11109  1  0  0  0  0
 49 12  1  1  0  0  0
 12113  1  0  0  0  0
 51 13  1  6  0  0  0
 13114  1  0  0  0  0
 14 15  1  0  0  0  0
 14 16  1  0  0  0  0
 14 21  1  0  0  0  0
 14 26  1  1  0  0  0
 15 17  1  0  0  0  0
 15 20  1  0  0  0  0
 15 53  1  6  0  0  0
 16 18  1  0  0  0  0
 16 22  1  0  0  0  0
 17 19  1  0  0  0  0
 17 27  1  0  0  0  0
 17 54  1  1  0  0  0
 18 20  1  0  0  0  0
 18 55  1  6  0  0  0
 19 23  1  0  0  0  0
 19 24  1  0  0  0  0
 19 56  1  6  0  0  0
 20 57  1  0  0  0  0
 20 58  1  0  0  0  0
 21 23  1  0  0  0  0
 21 59  1  0  0  0  0
 21 60  1  0  0  0  0
 22 25  1  0  0  0  0
 22 30  1  6  0  0  0
 22 61  1  0  0  0  0
 23 62  1  0  0  0  0
 23 63  1  0  0  0  0
 24 28  1  0  0  0  0
 24 29  1  0  0  0  0
 24 33  1  1  0  0  0
 25 31  1  0  0  0  0
 26 64  1  0  0  0  0
 26 65  1  0  0  0  0
 26 66  1  0  0  0  0
 27 32  1  0  0  0  0
 27 67  1  0  0  0  0
 27 68  1  0  0  0  0
 28 32  2  0  0  0  0
 28 34  1  0  0  0  0
 29 35  1  0  0  0  0
 29 70  1  0  0  0  0
 29 71  1  0  0  0  0
 30 72  1  0  0  0  0
 30 73  1  0  0  0  0
 30 74  1  0  0  0  0
 31 36  1  0  0  0  0
 31 75  1  0  0  0  0
 31 76  1  0  0  0  0
 32 77  1  0  0  0  0
 33 78  1  0  0  0  0
 33 79  1  0  0  0  0
 33 80  1  0  0  0  0
 34 37  1  0  0  0  0
 34 81  1  0  0  0  0
 34 82  1  0  0  0  0
 35 37  1  0  0  0  0
 35 83  1  0  0  0  0
 35 84  1  0  0  0  0
 36 39  1  0  0  0  0
 36 85  1  0  0  0  0
 36 86  1  0  0  0  0
 37 87  1  0  0  0  0
 38 39  1  0  0  0  0
 38 88  1  0  0  0  0
 38 89  1  0  0  0  0
 39 40  1  6  0  0  0
 39 90  1  0  0  0  0
 40 91  1  0  0  0  0
 40 92  1  0  0  0  0
 40 93  1  0  0  0  0
 41 42  1  0  0  0  0
 41 94  1  0  0  0  0
 42 43  1  0  0  0  0
 42 95  1  0  0  0  0
 43 45  1  0  0  0  0
 43 96  1  0  0  0  0
 44 45  1  0  0  0  0
 44 46  1  1  0  0  0
 44 97  1  0  0  0  0
 45 98  1  0  0  0  0
 46 99  1  0  0  0  0
 46100  1  0  0  0  0
 47 48  1  0  0  0  0
 47101  1  0  0  0  0
 48 49  1  0  0  0  0
 48104  1  0  0  0  0
 49 51  1  0  0  0  0
 49105  1  0  0  0  0
 50 51  1  0  0  0  0
 50 52  1  1  0  0  0
 50107  1  0  0  0  0
 51108  1  0  0  0  0
 52110  1  0  0  0  0
 52111  1  0  0  0  0
 52112  1  0  0  0  0
M  END
> <PUBCHEM_COMPOUND_CID>
10417550

> <PUBCHEM_COMPOUND_CANONICALIZED>
1

> <PUBCHEM_CACTVS_COMPLEXITY>
1370

> <PUBCHEM_CACTVS_HBOND_ACCEPTOR>
13

> <PUBCHEM_CACTVS_HBOND_DONOR>
7

> <PUBCHEM_CACTVS_ROTATABLE_BOND>
5

> <PUBCHEM_CACTVS_SUBSKEYS>
AAADcfB8PAAAAAAAAAAAAAAAAAAAAaIAAAA0aJECAAASAGCAAAAAGgAACAAAD1SwgAMCCAAABgCAAiBCAAAAAAAgAAAACAAAAAgREAIAAQAiQAAFwAAPAAPA4PwPgAAAAAAAAADAAAQAACAAAYAADCAAAA==

> <PUBCHEM_IUPAC_OPENEYE_NAME>
(2S,3R,4R,5R,6S)-2-[(2R,3R,4S,5S,6R)-4,5-dihydroxy-6-(hydroxymethyl)-2-[(1R,2S,4S,5'R,6R,7S,8S,9S,12S,13R,16S)-8-hydroxy-5',7,9,13-tetramethyl-spiro[5-oxapentacyclo[10.8.0.02,9.04,8.013,18]icos-18-ene-6,2'-tetrahydropyran]-16-yl]oxy-tetrahydropyran-3-yl]oxy-6-methyl-tetrahydropyran-3,4,5-triol

> <PUBCHEM_IUPAC_CAS_NAME>
(2S,3R,4R,5R,6S)-2-[[(2R,3R,4S,5S,6R)-4,5-dihydroxy-6-(hydroxymethyl)-2-[[(1R,2S,4S,5'R,6R,7S,8S,9S,12S,13R,16S)-8-hydroxy-5',7,9,13-tetramethyl-16-spiro[5-oxapentacyclo[10.8.0.02,9.04,8.013,18]eicos-18-ene-6,2'-oxane]yl]oxy]-3-oxanyl]oxy]-6-methyloxane-3,4,5-triol

> <PUBCHEM_IUPAC_NAME_MARKUP>
(2<I>S</I>,3<I>R</I>,4<I>R</I>,5<I>R</I>,6<I>S</I>)-2-[(2<I>R</I>,3<I>R</I>,4<I>S</I>,5<I>S</I>,6<I>R</I>)-4,5-dihydroxy-6-(hydroxymethyl)-2-[(1<I>R</I>,2<I>S</I>,4<I>S</I>,5&apos;<I>R</I>,6<I>R</I>,7<I>S</I>,8<I>S</I>,9<I>S</I>,12<I>S</I>,13<I>R</I>,16<I>S</I>)-8-hydroxy-5&apos;,7,9,13-tetramethylspiro[5-oxapentacyclo[10.8.0.0<SUP>2,9</SUP>.0<SUP>4,8</SUP>.0<SUP>13,18</SUP>]icos-18-ene-6,2&apos;-oxane]-16-yl]oxyoxan-3-yl]oxy-6-methyloxane-3,4,5-triol

> <PUBCHEM_IUPAC_NAME>
(2S,3R,4R,5R,6S)-2-[(2R,3R,4S,5S,6R)-4,5-dihydroxy-6-(hydroxymethyl)-2-[(1R,2S,4S,5'R,6R,7S,8S,9S,12S,13R,16S)-8-hydroxy-5',7,9,13-tetramethylspiro[5-oxapentacyclo[10.8.0.02,9.04,8.013,18]icos-18-ene-6,2'-oxane]-16-yl]oxyoxan-3-yl]oxy-6-methyloxane-3,4,5-triol

> <PUBCHEM_IUPAC_SYSTEMATIC_NAME>
(2S,3R,4R,5R,6S)-2-[(2R,3R,4S,5S,6R)-6-(hydroxymethyl)-4,5-bis(oxidanyl)-2-[(1R,2S,4S,5'R,6R,7S,8S,9S,12S,13R,16S)-5',7,9,13-tetramethyl-8-oxidanyl-spiro[5-oxapentacyclo[10.8.0.02,9.04,8.013,18]icos-18-ene-6,2'-oxane]-16-yl]oxy-oxan-3-yl]oxy-6-methyl-oxane-3,4,5-triol

> <PUBCHEM_IUPAC_TRADITIONAL_NAME>
(2S,3R,4R,5R,6S)-2-[(2R,3R,4S,5S,6R)-4,5-dihydroxy-2-[(1R,2S,4S,5'R,6R,7S,8S,9S,12S,13R,16S)-8-hydroxy-5',7,9,13-tetramethyl-spiro[5-oxapentacyclo[10.8.0.02,9.04,8.013,18]eicos-18-ene-6,2'-tetrahydropyran]-16-yl]oxy-6-methylol-tetrahydropyran-3-yl]oxy-6-methyl-tetrahydropyran-3,4,5-triol

> <PUBCHEM_IUPAC_INCHI>
InChI=1S/C39H62O13/c1-18-8-13-38(47-17-18)20(3)39(46)27(52-38)15-25-23-7-6-21-14-22(9-11-36(21,4)24(23)10-12-37(25,39)5)49-35-33(31(44)29(42)26(16-40)50-35)51-34-32(45)30(43)28(41)19(2)48-34/h6,18-20,22-35,40-46H,7-17H2,1-5H3/t18-,19+,20-,22+,23-,24+,25+,26-,27+,28+,29-,30-,31+,32-,33-,34+,35-,36+,37+,38-,39-/m1/s1

> <PUBCHEM_IUPAC_INCHIKEY>
WHWWQGPCTUQCMN-JDDKMXSSSA-N

> <PUBCHEM_XLOGP3_AA>
1.7

> <PUBCHEM_EXACT_MASS>
738.419042

> <PUBCHEM_MOLECULAR_FORMULA>
C39H62O13

> <PUBCHEM_MOLECULAR_WEIGHT>
738.9

> <PUBCHEM_OPENEYE_CAN_SMILES>
CC1CCC2(C(C3(C(O2)CC4C3(CCC5C4CC=C6C5(CCC(C6)OC7C(C(C(C(O7)CO)O)O)OC8C(C(C(C(O8)C)O)O)O)C)C)O)C)OC1

> <PUBCHEM_OPENEYE_ISO_SMILES>
C[C@@H]1CC[C@@]2([C@H]([C@]3([C@@H](O2)C[C@@H]4[C@@]3(CC[C@H]5[C@H]4CC=C6[C@@]5(CC[C@@H](C6)O[C@H]7[C@@H]([C@H]([C@@H]([C@H](O7)CO)O)O)O[C@H]8[C@@H]([C@@H]([C@H]([C@@H](O8)C)O)O)O)C)C)O)C)OC1

> <PUBCHEM_CACTVS_TPSA>
197

> <PUBCHEM_MONOISOTOPIC_WEIGHT>
738.419042

> <PUBCHEM_TOTAL_CHARGE>
0

> <PUBCHEM_HEAVY_ATOM_COUNT>
52

> <PUBCHEM_ATOM_DEF_STEREO_COUNT>
21

> <PUBCHEM_ATOM_UDEF_STEREO_COUNT>
0

> <PUBCHEM_BOND_DEF_STEREO_COUNT>
0

> <PUBCHEM_BOND_UDEF_STEREO_COUNT>
0

> <PUBCHEM_ISOTOPIC_ATOM_COUNT>
0

> <PUBCHEM_COMPONENT_COUNT>
1

> <PUBCHEM_CACTVS_TAUTO_COUNT>
-1

> <PUBCHEM_COORDINATE_TYPE>
1
5
255

> <PUBCHEM_BONDANNOTATIONS>
25  1  6
48  11  5
49  12  5
51  13  6
14  26  5
15  53  6
17  54  5
18  55  6
19  56  6
16  2  6
22  30  6
24  33  5
39  40  6
37  4  5
41  4  5
44  46  5
50  52  5
42  6  6
47  6  6
43  7  5
45  8  6

$$$$
