587595
  -OEChem-09152004472D

 73 78  0     1  0  0  0  0  0999 V2000
    5.5954   -2.5456    0.0000 O   0  0  0  0  0  0  0  0  0  0  0  0
    3.9300   -1.4644    0.0000 O   0  0  0  0  0  0  0  0  0  0  0  0
    9.2772   -1.8454    0.0000 O   0  0  0  0  0  0  0  0  0  0  0  0
   12.0027    2.8336    0.0000 O   0  0  0  0  0  0  0  0  0  0  0  0
    6.6628   -0.3108    0.0000 C   0  0  3  0  0  0  0  0  0  0  0  0
    7.5288   -0.8108    0.0000 C   0  0  3  0  0  0  0  0  0  0  0  0
    5.9258   -0.9778    0.0000 C   0  0  3  0  0  0  0  0  0  0  0  0
    8.3948   -0.3108    0.0000 C   0  0  3  0  0  0  0  0  0  0  0  0
    6.3309   -1.8856    0.0000 C   0  0  3  0  0  0  0  0  0  0  0  0
    8.3948    0.6892    0.0000 C   0  0  3  0  0  0  0  0  0  0  0  0
    7.3196   -1.7826    0.0000 C   0  0  0  0  0  0  0  0  0  0  0  0
    6.6628    0.6892    0.0000 C   0  0  0  0  0  0  0  0  0  0  0  0
    4.9434   -1.0845    0.0000 C   0  0  3  0  0  0  0  0  0  0  0  0
    7.5288    1.1892    0.0000 C   0  0  0  0  0  0  0  0  0  0  0  0
    9.2888    1.2239    0.0000 C   0  0  3  0  0  0  0  0  0  0  0  0
    4.7396   -2.0515    0.0000 C   0  0  3  0  0  0  0  0  0  0  0  0
    5.7968    0.1892    0.0000 C   0  0  0  0  0  0  0  0  0  0  0  0
    9.2888   -0.8454    0.0000 C   0  0  3  0  0  0  0  0  0  0  0  0
   10.1949    0.7101    0.0000 C   0  0  0  0  0  0  0  0  0  0  0  0
    9.2637    2.3086    0.0000 C   0  0  0  0  0  0  0  0  0  0  0  0
    4.2723   -0.3431    0.0000 C   0  0  0  0  0  0  0  0  0  0  0  0
   10.1949   -0.3316    0.0000 C   0  0  0  0  0  0  0  0  0  0  0  0
    4.6359   -3.0461    0.0000 C   0  0  0  0  0  0  0  0  0  0  0  0
    8.4189    1.7172    0.0000 C   0  0  0  0  0  0  0  0  0  0  0  0
   11.1386    1.2453    0.0000 C   0  0  0  0  0  0  0  0  0  0  0  0
   10.1949    2.8655    0.0000 C   0  0  0  0  0  0  0  0  0  0  0  0
    3.7227   -3.4536    0.0000 C   0  0  0  0  0  0  0  0  0  0  0  0
   11.1386    2.3303    0.0000 C   0  0  3  0  0  0  0  0  0  0  0  0
    2.9132   -2.8665    0.0000 C   0  0  3  0  0  0  0  0  0  0  0  0
    3.0169   -1.8719    0.0000 C   0  0  0  0  0  0  0  0  0  0  0  0
    2.0000   -3.2741    0.0000 C   0  0  0  0  0  0  0  0  0  0  0  0
    8.0299   -1.1758    0.0000 H   0  0  0  0  0  0  0  0  0  0  0  0
    5.6719   -0.4122    0.0000 H   0  0  0  0  0  0  0  0  0  0  0  0
    8.3901   -0.9307    0.0000 H   0  0  0  0  0  0  0  0  0  0  0  0
    6.5823   -2.4524    0.0000 H   0  0  0  0  0  0  0  0  0  0  0  0
    8.9342    0.3834    0.0000 H   0  0  0  0  0  0  0  0  0  0  0  0
    7.3187   -2.4026    0.0000 H   0  0  0  0  0  0  0  0  0  0  0  0
    7.9361   -1.8486    0.0000 H   0  0  0  0  0  0  0  0  0  0  0  0
    6.4507    1.2719    0.0000 H   0  0  0  0  0  0  0  0  0  0  0  0
    6.0522    0.5816    0.0000 H   0  0  0  0  0  0  0  0  0  0  0  0
    4.3448   -1.2463    0.0000 H   0  0  0  0  0  0  0  0  0  0  0  0
    7.9274    1.6642    0.0000 H   0  0  0  0  0  0  0  0  0  0  0  0
    7.1303    1.6642    0.0000 H   0  0  0  0  0  0  0  0  0  0  0  0
    6.1068    0.7262    0.0000 H   0  0  0  0  0  0  0  0  0  0  0  0
    5.2598    0.4992    0.0000 H   0  0  0  0  0  0  0  0  0  0  0  0
    5.4868   -0.3477    0.0000 H   0  0  0  0  0  0  0  0  0  0  0  0
    8.7477   -1.1481    0.0000 H   0  0  0  0  0  0  0  0  0  0  0  0
    9.0412    2.8873    0.0000 H   0  0  0  0  0  0  0  0  0  0  0  0
    8.6555    2.1884    0.0000 H   0  0  0  0  0  0  0  0  0  0  0  0
    4.7320    0.0729    0.0000 H   0  0  0  0  0  0  0  0  0  0  0  0
    3.8562    0.1165    0.0000 H   0  0  0  0  0  0  0  0  0  0  0  0
    3.8126   -0.7592    0.0000 H   0  0  0  0  0  0  0  0  0  0  0  0
   10.7306   -0.6436    0.0000 H   0  0  0  0  0  0  0  0  0  0  0  0
    4.7864   -3.6476    0.0000 H   0  0  0  0  0  0  0  0  0  0  0  0
    5.2544   -3.0023    0.0000 H   0  0  0  0  0  0  0  0  0  0  0  0
    8.7248    2.2565    0.0000 H   0  0  0  0  0  0  0  0  0  0  0  0
    7.8796    2.0231    0.0000 H   0  0  0  0  0  0  0  0  0  0  0  0
    8.1131    1.1779    0.0000 H   0  0  0  0  0  0  0  0  0  0  0  0
   11.3477    0.6616    0.0000 H   0  0  0  0  0  0  0  0  0  0  0  0
   11.7495    1.3514    0.0000 H   0  0  0  0  0  0  0  0  0  0  0  0
   10.5885    3.3446    0.0000 H   0  0  0  0  0  0  0  0  0  0  0  0
    9.7903    3.3353    0.0000 H   0  0  0  0  0  0  0  0  0  0  0  0
    3.2771   -3.8847    0.0000 H   0  0  0  0  0  0  0  0  0  0  0  0
    4.0699   -3.9673    0.0000 H   0  0  0  0  0  0  0  0  0  0  0  0
   11.1351    2.9503    0.0000 H   0  0  0  0  0  0  0  0  0  0  0  0
    9.8105   -2.1615    0.0000 H   0  0  0  0  0  0  0  0  0  0  0  0
    2.4113   -2.5026    0.0000 H   0  0  0  0  0  0  0  0  0  0  0  0
    2.8664   -1.2705    0.0000 H   0  0  0  0  0  0  0  0  0  0  0  0
    2.3984   -1.9157    0.0000 H   0  0  0  0  0  0  0  0  0  0  0  0
    1.7473   -2.7079    0.0000 H   0  0  0  0  0  0  0  0  0  0  0  0
    1.4338   -3.5267    0.0000 H   0  0  0  0  0  0  0  0  0  0  0  0
    2.2527   -3.8402    0.0000 H   0  0  0  0  0  0  0  0  0  0  0  0
   12.0003    3.4536    0.0000 H   0  0  0  0  0  0  0  0  0  0  0  0
  1  9  1  0  0  0  0
  1 16  1  0  0  0  0
  2 16  1  0  0  0  0
  2 30  1  0  0  0  0
  3 18  1  0  0  0  0
  3 66  1  0  0  0  0
  4 28  1  0  0  0  0
  4 73  1  0  0  0  0
  5  6  1  0  0  0  0
  5  7  1  0  0  0  0
  5 12  1  0  0  0  0
  5 17  1  0  0  0  0
  6  8  1  0  0  0  0
  6 11  1  0  0  0  0
  6 32  1  0  0  0  0
  7  9  1  0  0  0  0
  7 13  1  0  0  0  0
  7 33  1  0  0  0  0
  8 10  1  0  0  0  0
  8 18  1  0  0  0  0
  8 34  1  0  0  0  0
  9 11  1  0  0  0  0
  9 35  1  0  0  0  0
 10 14  1  0  0  0  0
 10 15  1  0  0  0  0
 10 36  1  0  0  0  0
 11 37  1  0  0  0  0
 11 38  1  0  0  0  0
 12 14  1  0  0  0  0
 12 39  1  0  0  0  0
 12 40  1  0  0  0  0
 13 16  1  0  0  0  0
 13 21  1  0  0  0  0
 13 41  1  0  0  0  0
 14 42  1  0  0  0  0
 14 43  1  0  0  0  0
 15 19  1  0  0  0  0
 15 20  1  0  0  0  0
 15 24  1  0  0  0  0
 16 23  1  0  0  0  0
 17 44  1  0  0  0  0
 17 45  1  0  0  0  0
 17 46  1  0  0  0  0
 18 22  1  0  0  0  0
 18 47  1  0  0  0  0
 19 22  2  0  0  0  0
 19 25  1  0  0  0  0
 20 26  1  0  0  0  0
 20 48  1  0  0  0  0
 20 49  1  0  0  0  0
 21 50  1  0  0  0  0
 21 51  1  0  0  0  0
 21 52  1  0  0  0  0
 22 53  1  0  0  0  0
 23 27  1  0  0  0  0
 23 54  1  0  0  0  0
 23 55  1  0  0  0  0
 24 56  1  0  0  0  0
 24 57  1  0  0  0  0
 24 58  1  0  0  0  0
 25 28  1  0  0  0  0
 25 59  1  0  0  0  0
 25 60  1  0  0  0  0
 26 28  1  0  0  0  0
 26 61  1  0  0  0  0
 26 62  1  0  0  0  0
 27 29  1  0  0  0  0
 27 63  1  0  0  0  0
 27 64  1  0  0  0  0
 28 65  1  0  0  0  0
 29 30  1  0  0  0  0
 29 31  1  0  0  0  0
 29 67  1  0  0  0  0
 30 68  1  0  0  0  0
 30 69  1  0  0  0  0
 31 70  1  0  0  0  0
 31 71  1  0  0  0  0
 31 72  1  0  0  0  0
M  END
> <PUBCHEM_COMPOUND_CID>
587595

> <PUBCHEM_COMPOUND_CANONICALIZED>
1

> <PUBCHEM_CACTVS_COMPLEXITY>
779

> <PUBCHEM_CACTVS_HBOND_ACCEPTOR>
4

> <PUBCHEM_CACTVS_HBOND_DONOR>
2

> <PUBCHEM_CACTVS_ROTATABLE_BOND>
0

> <PUBCHEM_CACTVS_SUBSKEYS>
AAADcfB4OAAAAAAAAAAAAAAAAAAAAaIAAAA0YIEAAAASAGCAAAAAGgAACAAADxSggAICCAAABgCAAiBCAAAAAAAgAAAACAAAAAgQFAIAAQAiUAAEwAAMEAPA4PwPgAAAAAAAAADAAAQAACAAAYAADAAAAA==

> <PUBCHEM_IUPAC_OPENEYE_NAME>
5',7,9,13-tetramethylspiro[5-oxapentacyclo[10.8.0.02,9.04,8.013,18]icos-18-ene-6,2'-tetrahydropyran]-16,20-diol

> <PUBCHEM_IUPAC_CAS_NAME>
5',7,9,13-tetramethylspiro[5-oxapentacyclo[10.8.0.02,9.04,8.013,18]eicos-18-ene-6,2'-oxane]-16,20-diol

> <PUBCHEM_IUPAC_NAME_MARKUP>
5&apos;,7,9,13-tetramethylspiro[5-oxapentacyclo[10.8.0.0<SUP>2,9</SUP>.0<SUP>4,8</SUP>.0<SUP>13,18</SUP>]icos-18-ene-6,2&apos;-oxane]-16,20-diol

> <PUBCHEM_IUPAC_NAME>
5',7,9,13-tetramethylspiro[5-oxapentacyclo[10.8.0.02,9.04,8.013,18]icos-18-ene-6,2'-oxane]-16,20-diol

> <PUBCHEM_IUPAC_SYSTEMATIC_NAME>
5',7,9,13-tetramethylspiro[5-oxapentacyclo[10.8.0.02,9.04,8.013,18]icos-18-ene-6,2'-oxane]-16,20-diol

> <PUBCHEM_IUPAC_TRADITIONAL_NAME>
5',7,9,13-tetramethylspiro[5-oxapentacyclo[10.8.0.02,9.04,8.013,18]eicos-18-ene-6,2'-tetrahydropyran]-16,20-diol

> <PUBCHEM_IUPAC_INCHI>
InChI=1S/C27H42O4/c1-15-5-10-27(30-14-15)16(2)24-22(31-27)13-20-23-19(7-9-26(20,24)4)25(3)8-6-18(28)11-17(25)12-21(23)29/h12,15-16,18-24,28-29H,5-11,13-14H2,1-4H3

> <PUBCHEM_IUPAC_INCHIKEY>
TWZIEWLIAZSJHV-UHFFFAOYSA-N

> <PUBCHEM_XLOGP3_AA>
4.6

> <PUBCHEM_EXACT_MASS>
430.30831

> <PUBCHEM_MOLECULAR_FORMULA>
C27H42O4

> <PUBCHEM_MOLECULAR_WEIGHT>
430.6

> <PUBCHEM_OPENEYE_CAN_SMILES>
CC1CCC2(C(C3C(O2)CC4C3(CCC5C4C(C=C6C5(CCC(C6)O)C)O)C)C)OC1

> <PUBCHEM_OPENEYE_ISO_SMILES>
CC1CCC2(C(C3C(O2)CC4C3(CCC5C4C(C=C6C5(CCC(C6)O)C)O)C)C)OC1

> <PUBCHEM_CACTVS_TPSA>
58.9

> <PUBCHEM_MONOISOTOPIC_WEIGHT>
430.30831

> <PUBCHEM_TOTAL_CHARGE>
0

> <PUBCHEM_HEAVY_ATOM_COUNT>
31

> <PUBCHEM_ATOM_DEF_STEREO_COUNT>
0

> <PUBCHEM_ATOM_UDEF_STEREO_COUNT>
12

> <PUBCHEM_BOND_DEF_STEREO_COUNT>
0

> <PUBCHEM_BOND_UDEF_STEREO_COUNT>
0

> <PUBCHEM_ISOTOPIC_ATOM_COUNT>
0

> <PUBCHEM_COMPONENT_COUNT>
1

> <PUBCHEM_CACTVS_TAUTO_COUNT>
-1

> <PUBCHEM_COORDINATE_TYPE>
1
5
255

> <PUBCHEM_BONDANNOTATIONS>
10  14  3
13  21  3
15  24  3
16  23  3
29  31  3
18  3  3
28  4  3
5  17  3
6  11  3
7  13  3
8  18  3
9  11  3

$$$$
