46200822
  -OEChem-09152005312D

157165  0     1  0  0  0  0  0999 V2000
    9.1674   -3.1438    0.0000 O   0  0  0  0  0  0  0  0  0  0  0  0
   11.1066   -3.4520    0.0000 O   0  0  0  0  0  0  0  0  0  0  0  0
    6.3012    4.7160    0.0000 O   0  0  0  0  0  0  0  0  0  0  0  0
    7.8038    5.5775    0.0000 O   0  0  0  0  0  0  0  0  0  0  0  0
    8.4235   -7.1429    0.0000 O   0  0  0  0  0  0  0  0  0  0  0  0
    5.3064    6.4510    0.0000 O   0  0  0  0  0  0  0  0  0  0  0  0
    6.3116    8.1800    0.0000 O   0  0  0  0  0  0  0  0  0  0  0  0
    8.3116    8.1741    0.0000 O   0  0  0  0  0  0  0  0  0  0  0  0
    6.6914   -7.1429    0.0000 O   0  0  0  0  0  0  0  0  0  0  0  0
    9.8038    5.5715    0.0000 O   0  0  0  0  0  0  0  0  0  0  0  0
    8.4235   -9.1429    0.0000 O   0  0  0  0  0  0  0  0  0  0  0  0
    4.8090    7.3185    0.0000 O   0  0  0  0  0  0  0  0  0  0  0  0
    9.8969    7.3603    0.0000 O   0  0  0  0  0  0  0  0  0  0  0  0
    6.6914  -10.1429    0.0000 O   0  0  0  0  0  0  0  0  0  0  0  0
    4.9594   -9.1429    0.0000 O   0  0  0  0  0  0  0  0  0  0  0  0
    5.3168    9.9151    0.0000 O   0  0  0  0  0  0  0  0  0  0  0  0
    9.5956    9.9303    0.0000 O   0  0  0  0  0  0  0  0  0  0  0  0
    3.3168    9.9210    0.0000 O   0  0  0  0  0  0  0  0  0  0  0  0
   11.6627    9.2518    0.0000 O   0  0  0  0  0  0  0  0  0  0  0  0
    4.9594   -6.1429    0.0000 O   0  0  0  0  0  0  0  0  0  0  0  0
    2.3116    8.1920    0.0000 O   0  0  0  0  0  0  0  0  0  0  0  0
   12.5709    7.4803    0.0000 O   0  0  0  0  0  0  0  0  0  0  0  0
    9.3582   -0.6745    0.0000 C   0  0  3  0  0  0  0  0  0  0  0  0
    8.3582   -0.6754    0.0000 C   0  0  3  0  0  0  0  0  0  0  0  0
    9.6638   -1.6204    0.0000 C   0  0  3  0  0  0  0  0  0  0  0  0
    7.8575    0.1902    0.0000 C   0  0  3  0  0  0  0  0  0  0  0  0
    8.8596   -2.2048    0.0000 C   0  0  3  0  0  0  0  0  0  0  0  0
    8.3567    1.0567    0.0000 C   0  0  3  0  0  0  0  0  0  0  0  0
    8.0543   -1.6218    0.0000 C   0  0  0  0  0  0  0  0  0  0  0  0
    9.8575    0.1920    0.0000 C   0  0  0  0  0  0  0  0  0  0  0  0
   10.4617   -2.2034    0.0000 C   0  0  3  0  0  0  0  0  0  0  0  0
    9.3567    1.0576    0.0000 C   0  0  0  0  0  0  0  0  0  0  0  0
    7.8491    1.9663    0.0000 C   0  0  3  0  0  0  0  0  0  0  0  0
   10.1556   -3.1429    0.0000 C   0  0  3  0  0  0  0  0  0  0  0  0
   10.3582   -0.6736    0.0000 C   0  0  0  0  0  0  0  0  0  0  0  0
    6.8160    0.1733    0.0000 C   0  0  0  0  0  0  0  0  0  0  0  0
    6.8075    1.9734    0.0000 C   0  0  0  0  0  0  0  0  0  0  0  0
    8.4124    2.8936    0.0000 C   0  0  0  0  0  0  0  0  0  0  0  0
    6.2874    1.0709    0.0000 C   0  0  0  0  0  0  0  0  0  0  0  0
   11.4133   -1.8960    0.0000 C   0  0  0  0  0  0  0  0  0  0  0  0
    8.8491    1.9594    0.0000 C   0  0  0  0  0  0  0  0  0  0  0  0
   10.1556   -4.1429    0.0000 C   0  0  0  0  0  0  0  0  0  0  0  0
    6.2570    2.9083    0.0000 C   0  0  0  0  0  0  0  0  0  0  0  0
    7.8836    3.8410    0.0000 C   0  0  0  0  0  0  0  0  0  0  0  0
    6.7986    3.8484    0.0000 C   0  0  3  0  0  0  0  0  0  0  0  0
    9.2895   -4.6429    0.0000 C   0  0  0  0  0  0  0  0  0  0  0  0
   11.3145   -4.4301    0.0000 C   0  0  0  0  0  0  0  0  0  0  0  0
    9.2895   -5.6429    0.0000 C   0  0  3  0  0  0  0  0  0  0  0  0
    6.8038    5.5805    0.0000 C   0  0  3  0  0  0  0  0  0  0  0  0
    8.4235   -6.1429    0.0000 C   0  0  0  0  0  0  0  0  0  0  0  0
   10.1556   -6.1429    0.0000 C   0  0  0  0  0  0  0  0  0  0  0  0
    6.3064    6.4480    0.0000 C   0  0  3  0  0  0  0  0  0  0  0  0
    6.8090    7.3125    0.0000 C   0  0  3  0  0  0  0  0  0  0  0  0
    8.3064    6.4420    0.0000 C   0  0  3  0  0  0  0  0  0  0  0  0
    7.8090    7.3095    0.0000 C   0  0  3  0  0  0  0  0  0  0  0  0
    7.5575   -7.6429    0.0000 C   0  0  3  0  0  0  0  0  0  0  0  0
    9.3064    6.4390    0.0000 C   0  0  0  0  0  0  0  0  0  0  0  0
    7.5575   -8.6429    0.0000 C   0  0  3  0  0  0  0  0  0  0  0  0
    5.3116    8.1830    0.0000 C   0  0  3  0  0  0  0  0  0  0  0  0
    9.3116    8.1711    0.0000 C   0  0  3  0  0  0  0  0  0  0  0  0
    6.6914   -9.1429    0.0000 C   0  0  3  0  0  0  0  0  0  0  0  0
    5.8254   -7.6429    0.0000 C   0  0  3  0  0  0  0  0  0  0  0  0
    5.8254   -8.6429    0.0000 C   0  0  3  0  0  0  0  0  0  0  0  0
    4.8142    9.0505    0.0000 C   0  0  3  0  0  0  0  0  0  0  0  0
    9.9018    8.9783    0.0000 C   0  0  3  0  0  0  0  0  0  0  0  0
    3.8142    9.0535    0.0000 C   0  0  3  0  0  0  0  0  0  0  0  0
   10.8519    8.6665    0.0000 C   0  0  3  0  0  0  0  0  0  0  0  0
   10.8489    7.6665    0.0000 C   0  0  3  0  0  0  0  0  0  0  0  0
    4.9594   -7.1429    0.0000 C   0  0  0  0  0  0  0  0  0  0  0  0
    3.8090    7.3215    0.0000 C   0  0  3  0  0  0  0  0  0  0  0  0
    3.3116    8.1890    0.0000 C   0  0  3  0  0  0  0  0  0  0  0  0
   11.6562    7.0763    0.0000 C   0  0  0  0  0  0  0  0  0  0  0  0
    3.3064    6.4570    0.0000 C   0  0  0  0  0  0  0  0  0  0  0  0
    7.7418   -0.7415    0.0000 H   0  0  0  0  0  0  0  0  0  0  0  0
   10.1662   -1.2571    0.0000 H   0  0  0  0  0  0  0  0  0  0  0  0
    7.5521   -0.3493    0.0000 H   0  0  0  0  0  0  0  0  0  0  0  0
    8.3588   -2.5703    0.0000 H   0  0  0  0  0  0  0  0  0  0  0  0
    8.6672    0.5200    0.0000 H   0  0  0  0  0  0  0  0  0  0  0  0
    7.4872   -1.3713    0.0000 H   0  0  0  0  0  0  0  0  0  0  0  0
    7.7456   -2.1595    0.0000 H   0  0  0  0  0  0  0  0  0  0  0  0
   10.3328   -0.2062    0.0000 H   0  0  0  0  0  0  0  0  0  0  0  0
   10.3321    0.5909    0.0000 H   0  0  0  0  0  0  0  0  0  0  0  0
   10.5600   -1.5912    0.0000 H   0  0  0  0  0  0  0  0  0  0  0  0
    9.9392    1.2701    0.0000 H   0  0  0  0  0  0  0  0  0  0  0  0
    9.2485    1.6680    0.0000 H   0  0  0  0  0  0  0  0  0  0  0  0
   10.3588   -1.2936    0.0000 H   0  0  0  0  0  0  0  0  0  0  0  0
   10.9782   -0.6731    0.0000 H   0  0  0  0  0  0  0  0  0  0  0  0
   10.3577   -0.0536    0.0000 H   0  0  0  0  0  0  0  0  0  0  0  0
    6.2358   -0.0453    0.0000 H   0  0  0  0  0  0  0  0  0  0  0  0
    6.9320   -0.4358    0.0000 H   0  0  0  0  0  0  0  0  0  0  0  0
    8.8794    2.4858    0.0000 H   0  0  0  0  0  0  0  0  0  0  0  0
    8.8941    3.2839    0.0000 H   0  0  0  0  0  0  0  0  0  0  0  0
    5.6675    1.0679    0.0000 H   0  0  0  0  0  0  0  0  0  0  0  0
   11.6039   -2.4860    0.0000 H   0  0  0  0  0  0  0  0  0  0  0  0
   12.0033   -1.7054    0.0000 H   0  0  0  0  0  0  0  0  0  0  0  0
   11.2228   -1.3060    0.0000 H   0  0  0  0  0  0  0  0  0  0  0  0
    8.8448    1.3394    0.0000 H   0  0  0  0  0  0  0  0  0  0  0  0
    9.4691    1.9552    0.0000 H   0  0  0  0  0  0  0  0  0  0  0  0
    8.8533    2.5794    0.0000 H   0  0  0  0  0  0  0  0  0  0  0  0
   10.3676   -4.7255    0.0000 H   0  0  0  0  0  0  0  0  0  0  0  0
   10.7661   -4.0353    0.0000 H   0  0  0  0  0  0  0  0  0  0  0  0
    5.7806    3.3052    0.0000 H   0  0  0  0  0  0  0  0  0  0  0  0
    5.7844    2.5070    0.0000 H   0  0  0  0  0  0  0  0  0  0  0  0
    8.4687    4.0461    0.0000 H   0  0  0  0  0  0  0  0  0  0  0  0
    7.7817    4.4526    0.0000 H   0  0  0  0  0  0  0  0  0  0  0  0
    6.1786    3.8491    0.0000 H   0  0  0  0  0  0  0  0  0  0  0  0
    9.0775   -4.0603    0.0000 H   0  0  0  0  0  0  0  0  0  0  0  0
    8.6790   -4.7506    0.0000 H   0  0  0  0  0  0  0  0  0  0  0  0
   10.7081   -4.5590    0.0000 H   0  0  0  0  0  0  0  0  0  0  0  0
   11.4434   -5.0365    0.0000 H   0  0  0  0  0  0  0  0  0  0  0  0
   11.9210   -4.3012    0.0000 H   0  0  0  0  0  0  0  0  0  0  0  0
    9.2895   -6.2629    0.0000 H   0  0  0  0  0  0  0  0  0  0  0  0
    6.1838    5.5823    0.0000 H   0  0  0  0  0  0  0  0  0  0  0  0
    8.2114   -5.5603    0.0000 H   0  0  0  0  0  0  0  0  0  0  0  0
    7.8129   -6.2506    0.0000 H   0  0  0  0  0  0  0  0  0  0  0  0
    9.8456   -6.6799    0.0000 H   0  0  0  0  0  0  0  0  0  0  0  0
   10.6925   -6.4529    0.0000 H   0  0  0  0  0  0  0  0  0  0  0  0
   10.4656   -5.6060    0.0000 H   0  0  0  0  0  0  0  0  0  0  0  0
    5.9980    6.9858    0.0000 H   0  0  0  0  0  0  0  0  0  0  0  0
    7.1206    7.8485    0.0000 H   0  0  0  0  0  0  0  0  0  0  0  0
    8.6148    5.9042    0.0000 H   0  0  0  0  0  0  0  0  0  0  0  0
    8.4290    7.3077    0.0000 H   0  0  0  0  0  0  0  0  0  0  0  0
    4.9948    5.9150    0.0000 H   0  0  0  0  0  0  0  0  0  0  0  0
    7.5575   -7.0229    0.0000 H   0  0  0  0  0  0  0  0  0  0  0  0
    9.8896    6.6493    0.0000 H   0  0  0  0  0  0  0  0  0  0  0  0
    9.2006    7.0499    0.0000 H   0  0  0  0  0  0  0  0  0  0  0  0
    7.5575   -9.2629    0.0000 H   0  0  0  0  0  0  0  0  0  0  0  0
    5.6200    7.6452    0.0000 H   0  0  0  0  0  0  0  0  0  0  0  0
    9.0318    8.7243    0.0000 H   0  0  0  0  0  0  0  0  0  0  0  0
    6.1545   -9.4529    0.0000 H   0  0  0  0  0  0  0  0  0  0  0  0
    5.8254   -7.0229    0.0000 H   0  0  0  0  0  0  0  0  0  0  0  0
    5.8254   -9.2629    0.0000 H   0  0  0  0  0  0  0  0  0  0  0  0
   10.4238    5.5697    0.0000 H   0  0  0  0  0  0  0  0  0  0  0  0
    5.4342    9.0487    0.0000 H   0  0  0  0  0  0  0  0  0  0  0  0
    9.2897    9.0771    0.0000 H   0  0  0  0  0  0  0  0  0  0  0  0
    8.9604   -8.8329    0.0000 H   0  0  0  0  0  0  0  0  0  0  0  0
    4.1258    9.5895    0.0000 H   0  0  0  0  0  0  0  0  0  0  0  0
   11.4035    8.3833    0.0000 H   0  0  0  0  0  0  0  0  0  0  0  0
   10.7501    7.0544    0.0000 H   0  0  0  0  0  0  0  0  0  0  0  0
    4.3488   -7.0353    0.0000 H   0  0  0  0  0  0  0  0  0  0  0  0
    4.7474   -7.7255    0.0000 H   0  0  0  0  0  0  0  0  0  0  0  0
    4.1174    6.7836    0.0000 H   0  0  0  0  0  0  0  0  0  0  0  0
    3.0000    7.6530    0.0000 H   0  0  0  0  0  0  0  0  0  0  0  0
    6.1545  -10.4529    0.0000 H   0  0  0  0  0  0  0  0  0  0  0  0
    4.4225   -8.8329    0.0000 H   0  0  0  0  0  0  0  0  0  0  0  0
    5.0084   10.4529    0.0000 H   0  0  0  0  0  0  0  0  0  0  0  0
    8.9895   10.0610    0.0000 H   0  0  0  0  0  0  0  0  0  0  0  0
   11.2089    6.6469    0.0000 H   0  0  0  0  0  0  0  0  0  0  0  0
   12.0013    6.5612    0.0000 H   0  0  0  0  0  0  0  0  0  0  0  0
    2.7704    6.7686    0.0000 H   0  0  0  0  0  0  0  0  0  0  0  0
    2.9948    5.9210    0.0000 H   0  0  0  0  0  0  0  0  0  0  0  0
    3.8424    6.1454    0.0000 H   0  0  0  0  0  0  0  0  0  0  0  0
    2.6968    9.9229    0.0000 H   0  0  0  0  0  0  0  0  0  0  0  0
   12.2283    8.9980    0.0000 H   0  0  0  0  0  0  0  0  0  0  0  0
    4.4225   -5.8329    0.0000 H   0  0  0  0  0  0  0  0  0  0  0  0
    2.0000    7.6560    0.0000 H   0  0  0  0  0  0  0  0  0  0  0  0
   13.0714    7.1144    0.0000 H   0  0  0  0  0  0  0  0  0  0  0  0
  1 27  1  0  0  0  0
  1 34  1  0  0  0  0
  2 34  1  0  0  0  0
  2 47  1  0  0  0  0
  3 45  1  0  0  0  0
  3 49  1  0  0  0  0
  4 49  1  0  0  0  0
  4 54  1  0  0  0  0
  5 50  1  0  0  0  0
  5 56  1  0  0  0  0
  6 52  1  0  0  0  0
  6123  1  0  0  0  0
  7 53  1  0  0  0  0
  7 59  1  0  0  0  0
  8 55  1  0  0  0  0
  8 60  1  0  0  0  0
  9 56  1  0  0  0  0
  9 62  1  0  0  0  0
 10 57  1  0  0  0  0
 10133  1  0  0  0  0
 11 58  1  0  0  0  0
 11136  1  0  0  0  0
 12 59  1  0  0  0  0
 12 70  1  0  0  0  0
 13 60  1  0  0  0  0
 13 68  1  0  0  0  0
 14 61  1  0  0  0  0
 14144  1  0  0  0  0
 15 63  1  0  0  0  0
 15145  1  0  0  0  0
 16 64  1  0  0  0  0
 16146  1  0  0  0  0
 17 65  1  0  0  0  0
 17147  1  0  0  0  0
 18 66  1  0  0  0  0
 18153  1  0  0  0  0
 19 67  1  0  0  0  0
 19154  1  0  0  0  0
 20 69  1  0  0  0  0
 20155  1  0  0  0  0
 21 71  1  0  0  0  0
 21156  1  0  0  0  0
 22 72  1  0  0  0  0
 22157  1  0  0  0  0
 23 24  1  0  0  0  0
 23 25  1  0  0  0  0
 23 30  1  0  0  0  0
 23 35  1  0  0  0  0
 24 26  1  0  0  0  0
 24 29  1  0  0  0  0
 24 74  1  0  0  0  0
 25 27  1  0  0  0  0
 25 31  1  0  0  0  0
 25 75  1  0  0  0  0
 26 28  1  0  0  0  0
 26 36  1  0  0  0  0
 26 76  1  0  0  0  0
 27 29  1  0  0  0  0
 27 77  1  0  0  0  0
 28 32  1  0  0  0  0
 28 33  1  0  0  0  0
 28 78  1  0  0  0  0
 29 79  1  0  0  0  0
 29 80  1  0  0  0  0
 30 32  1  0  0  0  0
 30 81  1  0  0  0  0
 30 82  1  0  0  0  0
 31 34  1  0  0  0  0
 31 40  1  0  0  0  0
 31 83  1  0  0  0  0
 32 84  1  0  0  0  0
 32 85  1  0  0  0  0
 33 37  1  0  0  0  0
 33 38  1  0  0  0  0
 33 41  1  0  0  0  0
 34 42  1  0  0  0  0
 35 86  1  0  0  0  0
 35 87  1  0  0  0  0
 35 88  1  0  0  0  0
 36 39  1  0  0  0  0
 36 89  1  0  0  0  0
 36 90  1  0  0  0  0
 37 39  2  0  0  0  0
 37 43  1  0  0  0  0
 38 44  1  0  0  0  0
 38 91  1  0  0  0  0
 38 92  1  0  0  0  0
 39 93  1  0  0  0  0
 40 94  1  0  0  0  0
 40 95  1  0  0  0  0
 40 96  1  0  0  0  0
 41 97  1  0  0  0  0
 41 98  1  0  0  0  0
 41 99  1  0  0  0  0
 42 46  1  0  0  0  0
 42100  1  0  0  0  0
 42101  1  0  0  0  0
 43 45  1  0  0  0  0
 43102  1  0  0  0  0
 43103  1  0  0  0  0
 44 45  1  0  0  0  0
 44104  1  0  0  0  0
 44105  1  0  0  0  0
 45106  1  0  0  0  0
 46 48  1  0  0  0  0
 46107  1  0  0  0  0
 46108  1  0  0  0  0
 47109  1  0  0  0  0
 47110  1  0  0  0  0
 47111  1  0  0  0  0
 48 50  1  0  0  0  0
 48 51  1  0  0  0  0
 48112  1  0  0  0  0
 49 52  1  0  0  0  0
 49113  1  0  0  0  0
 50114  1  0  0  0  0
 50115  1  0  0  0  0
 51116  1  0  0  0  0
 51117  1  0  0  0  0
 51118  1  0  0  0  0
 52 53  1  0  0  0  0
 52119  1  0  0  0  0
 53 55  1  0  0  0  0
 53120  1  0  0  0  0
 54 55  1  0  0  0  0
 54 57  1  0  0  0  0
 54121  1  0  0  0  0
 55122  1  0  0  0  0
 56 58  1  0  0  0  0
 56124  1  0  0  0  0
 57125  1  0  0  0  0
 57126  1  0  0  0  0
 58 61  1  0  0  0  0
 58127  1  0  0  0  0
 59 64  1  0  0  0  0
 59128  1  0  0  0  0
 60 65  1  0  0  0  0
 60129  1  0  0  0  0
 61 63  1  0  0  0  0
 61130  1  0  0  0  0
 62 63  1  0  0  0  0
 62 69  1  0  0  0  0
 62131  1  0  0  0  0
 63132  1  0  0  0  0
 64 66  1  0  0  0  0
 64134  1  0  0  0  0
 65 67  1  0  0  0  0
 65135  1  0  0  0  0
 66 71  1  0  0  0  0
 66137  1  0  0  0  0
 67 68  1  0  0  0  0
 67138  1  0  0  0  0
 68 72  1  0  0  0  0
 68139  1  0  0  0  0
 69140  1  0  0  0  0
 69141  1  0  0  0  0
 70 71  1  0  0  0  0
 70 73  1  0  0  0  0
 70142  1  0  0  0  0
 71143  1  0  0  0  0
 72148  1  0  0  0  0
 72149  1  0  0  0  0
 73150  1  0  0  0  0
 73151  1  0  0  0  0
 73152  1  0  0  0  0
M  END
> <PUBCHEM_COMPOUND_CID>
46200822

> <PUBCHEM_COMPOUND_CANONICALIZED>
1

> <PUBCHEM_CACTVS_COMPLEXITY>
1880

> <PUBCHEM_CACTVS_HBOND_ACCEPTOR>
22

> <PUBCHEM_CACTVS_HBOND_DONOR>
12

> <PUBCHEM_CACTVS_ROTATABLE_BOND>
16

> <PUBCHEM_CACTVS_SUBSKEYS>
AAADcfB8PgAAAAAAAAAAAAAAAAAAAaJEAAA0aJECAAASAGCAAAAAGgAACAAADxSwgAMCCAAABgCAAiBCAAAAAAAgAAAACAAAAAgREAIAAQAiQAAFwAAPAAPA4PwPgAAAAAAAAADAAAQAACAAAYAADAAAAA==

> <PUBCHEM_IUPAC_OPENEYE_NAME>
2-[3-[3,4-dihydroxy-5-(hydroxymethyl)tetrahydrofuran-2-yl]oxy-5-hydroxy-2-(hydroxymethyl)-6-[[6-methoxy-7,9,13-trimethyl-6-[3-methyl-4-[3,4,5-trihydroxy-6-(hydroxymethyl)tetrahydropyran-2-yl]oxy-butyl]-5-oxapentacyclo[10.8.0.02,9.04,8.013,18]icos-18-en-16-yl]oxy]tetrahydropyran-4-yl]oxy-6-methyl-tetrahydropyran-3,4,5-triol

> <PUBCHEM_IUPAC_CAS_NAME>
2-[[3-[[3,4-dihydroxy-5-(hydroxymethyl)-2-oxolanyl]oxy]-5-hydroxy-2-(hydroxymethyl)-6-[[6-methoxy-7,9,13-trimethyl-6-[3-methyl-4-[[3,4,5-trihydroxy-6-(hydroxymethyl)-2-oxanyl]oxy]butyl]-5-oxapentacyclo[10.8.0.02,9.04,8.013,18]eicos-18-en-16-yl]oxy]-4-oxanyl]oxy]-6-methyloxane-3,4,5-triol

> <PUBCHEM_IUPAC_NAME_MARKUP>
2-[3-[3,4-dihydroxy-5-(hydroxymethyl)oxolan-2-yl]oxy-5-hydroxy-2-(hydroxymethyl)-6-[[6-methoxy-7,9,13-trimethyl-6-[3-methyl-4-[3,4,5-trihydroxy-6-(hydroxymethyl)oxan-2-yl]oxybutyl]-5-oxapentacyclo[10.8.0.0<SUP>2,9</SUP>.0<SUP>4,8</SUP>.0<SUP>13,18</SUP>]icos-18-en-16-yl]oxy]oxan-4-yl]oxy-6-methyloxane-3,4,5-triol

> <PUBCHEM_IUPAC_NAME>
2-[3-[3,4-dihydroxy-5-(hydroxymethyl)oxolan-2-yl]oxy-5-hydroxy-2-(hydroxymethyl)-6-[[6-methoxy-7,9,13-trimethyl-6-[3-methyl-4-[3,4,5-trihydroxy-6-(hydroxymethyl)oxan-2-yl]oxybutyl]-5-oxapentacyclo[10.8.0.02,9.04,8.013,18]icos-18-en-16-yl]oxy]oxan-4-yl]oxy-6-methyloxane-3,4,5-triol

> <PUBCHEM_IUPAC_SYSTEMATIC_NAME>
2-[2-(hydroxymethyl)-3-[5-(hydroxymethyl)-3,4-bis(oxidanyl)oxolan-2-yl]oxy-6-[[6-[4-[6-(hydroxymethyl)-3,4,5-tris(oxidanyl)oxan-2-yl]oxy-3-methyl-butyl]-6-methoxy-7,9,13-trimethyl-5-oxapentacyclo[10.8.0.02,9.04,8.013,18]icos-18-en-16-yl]oxy]-5-oxidanyl-oxan-4-yl]oxy-6-methyl-oxane-3,4,5-triol

> <PUBCHEM_IUPAC_TRADITIONAL_NAME>
2-[5-(3,4-dihydroxy-5-methylol-tetrahydrofuran-2-yl)oxy-3-hydroxy-2-[[6-methoxy-7,9,13-trimethyl-6-[3-methyl-4-(3,4,5-trihydroxy-6-methylol-tetrahydropyran-2-yl)oxy-butyl]-5-oxapentacyclo[10.8.0.02,9.04,8.013,18]eicos-18-en-16-yl]oxy]-6-methylol-tetrahydropyran-4-yl]oxy-6-methyl-tetrahydropyran-3,4,5-triol

> <PUBCHEM_IUPAC_INCHI>
InChI=1S/C51H84O22/c1-21(20-65-45-40(61)38(59)35(56)30(17-52)68-45)9-14-51(64-6)22(2)33-29(73-51)16-28-26-8-7-24-15-25(10-12-49(24,4)27(26)11-13-50(28,33)5)67-48-42(63)44(72-46-41(62)37(58)34(55)23(3)66-46)43(32(19-54)70-48)71-47-39(60)36(57)31(18-53)69-47/h7,21-23,25-48,52-63H,8-20H2,1-6H3

> <PUBCHEM_IUPAC_INCHIKEY>
GJHYVTIBXQFLKG-UHFFFAOYSA-N

> <PUBCHEM_XLOGP3_AA>
-0.6

> <PUBCHEM_EXACT_MASS>
1048.545424

> <PUBCHEM_MOLECULAR_FORMULA>
C51H84O22

> <PUBCHEM_MOLECULAR_WEIGHT>
1049.2

> <PUBCHEM_OPENEYE_CAN_SMILES>
CC1C2C(CC3C2(CCC4C3CC=C5C4(CCC(C5)OC6C(C(C(C(O6)CO)OC7C(C(C(O7)CO)O)O)OC8C(C(C(C(O8)C)O)O)O)O)C)C)OC1(CCC(C)COC9C(C(C(C(O9)CO)O)O)O)OC

> <PUBCHEM_OPENEYE_ISO_SMILES>
CC1C2C(CC3C2(CCC4C3CC=C5C4(CCC(C5)OC6C(C(C(C(O6)CO)OC7C(C(C(O7)CO)O)O)OC8C(C(C(C(O8)C)O)O)O)O)C)C)OC1(CCC(C)COC9C(C(C(C(O9)CO)O)O)O)OC

> <PUBCHEM_CACTVS_TPSA>
335

> <PUBCHEM_MONOISOTOPIC_WEIGHT>
1048.545424

> <PUBCHEM_TOTAL_CHARGE>
0

> <PUBCHEM_HEAVY_ATOM_COUNT>
73

> <PUBCHEM_ATOM_DEF_STEREO_COUNT>
0

> <PUBCHEM_ATOM_UDEF_STEREO_COUNT>
30

> <PUBCHEM_BOND_DEF_STEREO_COUNT>
0

> <PUBCHEM_BOND_UDEF_STEREO_COUNT>
0

> <PUBCHEM_ISOTOPIC_ATOM_COUNT>
0

> <PUBCHEM_COMPONENT_COUNT>
1

> <PUBCHEM_CACTVS_TAUTO_COUNT>
-1

> <PUBCHEM_COORDINATE_TYPE>
1
5
255

> <PUBCHEM_BONDANNOTATIONS>
58  11  3
61  14  3
63  15  3
64  16  3
65  17  3
66  18  3
67  19  3
71  21  3
23  35  3
24  29  3
25  31  3
26  36  3
27  29  3
28  32  3
45  3  3
49  3  3
31  40  3
33  41  3
34  42  3
48  51  3
56  5  3
54  57  3
52  6  3
62  69  3
68  72  3
53  7  3
59  7  3
70  73  3
55  8  3
60  8  3

$$$$
