5365676
  -OEChem-09152004312D

 63 62  0     0  0  0  0  0  0999 V2000
    5.1350   -1.6900    0.0000 O   0  0  0  0  0  0  0  0  0  0  0  0
    6.0010   -3.1900    0.0000 O   0  0  0  0  0  0  0  0  0  0  0  0
    2.5369   -2.1900    0.0000 O   0  0  0  0  0  0  0  0  0  0  0  0
    3.4030   -3.6900    0.0000 O   0  0  0  0  0  0  0  0  0  0  0  0
    9.4651   -2.1900    0.0000 C   0  0  0  0  0  0  0  0  0  0  0  0
   10.3312   -1.6900    0.0000 C   0  0  0  0  0  0  0  0  0  0  0  0
    8.5991   -1.6900    0.0000 C   0  0  0  0  0  0  0  0  0  0  0  0
   11.1972   -2.1900    0.0000 C   0  0  0  0  0  0  0  0  0  0  0  0
    7.7331   -2.1900    0.0000 C   0  0  0  0  0  0  0  0  0  0  0  0
   12.0632   -1.6900    0.0000 C   0  0  0  0  0  0  0  0  0  0  0  0
    6.8671   -1.6900    0.0000 C   0  0  0  0  0  0  0  0  0  0  0  0
   12.9292   -2.1900    0.0000 C   0  0  0  0  0  0  0  0  0  0  0  0
   13.7953    2.3100    0.0000 C   0  0  0  0  0  0  0  0  0  0  0  0
    6.0010   -2.1900    0.0000 C   0  0  0  0  0  0  0  0  0  0  0  0
   12.9292    2.8100    0.0000 C   0  0  0  0  0  0  0  0  0  0  0  0
   13.7953    1.3100    0.0000 C   0  0  0  0  0  0  0  0  0  0  0  0
   12.9292    3.8100    0.0000 C   0  0  0  0  0  0  0  0  0  0  0  0
   13.7953   -1.6900    0.0000 C   0  0  0  0  0  0  0  0  0  0  0  0
    4.2690   -2.1900    0.0000 C   0  0  0  0  0  0  0  0  0  0  0  0
   13.7953   -0.6900    0.0000 C   0  0  0  0  0  0  0  0  0  0  0  0
   14.6613    0.8100    0.0000 C   0  0  0  0  0  0  0  0  0  0  0  0
   14.6613   -0.1900    0.0000 C   0  0  0  0  0  0  0  0  0  0  0  0
   12.0632    4.3100    0.0000 C   0  0  0  0  0  0  0  0  0  0  0  0
    3.4030   -1.6900    0.0000 C   0  0  0  0  0  0  0  0  0  0  0  0
    4.2690   -3.1900    0.0000 C   0  0  0  0  0  0  0  0  0  0  0  0
    9.0666   -2.6650    0.0000 H   0  0  0  0  0  0  0  0  0  0  0  0
    9.8637   -2.6650    0.0000 H   0  0  0  0  0  0  0  0  0  0  0  0
   10.7297   -1.2150    0.0000 H   0  0  0  0  0  0  0  0  0  0  0  0
    9.9326   -1.2150    0.0000 H   0  0  0  0  0  0  0  0  0  0  0  0
    8.9976   -1.2150    0.0000 H   0  0  0  0  0  0  0  0  0  0  0  0
    8.2006   -1.2150    0.0000 H   0  0  0  0  0  0  0  0  0  0  0  0
   10.7987   -2.6650    0.0000 H   0  0  0  0  0  0  0  0  0  0  0  0
   11.5957   -2.6650    0.0000 H   0  0  0  0  0  0  0  0  0  0  0  0
    7.3346   -2.6650    0.0000 H   0  0  0  0  0  0  0  0  0  0  0  0
    8.1316   -2.6650    0.0000 H   0  0  0  0  0  0  0  0  0  0  0  0
   12.4617   -1.2150    0.0000 H   0  0  0  0  0  0  0  0  0  0  0  0
   11.6647   -1.2150    0.0000 H   0  0  0  0  0  0  0  0  0  0  0  0
    7.2656   -1.2150    0.0000 H   0  0  0  0  0  0  0  0  0  0  0  0
    6.4685   -1.2150    0.0000 H   0  0  0  0  0  0  0  0  0  0  0  0
   12.9292   -2.8100    0.0000 H   0  0  0  0  0  0  0  0  0  0  0  0
   14.4058    2.2023    0.0000 H   0  0  0  0  0  0  0  0  0  0  0  0
   14.0073    2.8926    0.0000 H   0  0  0  0  0  0  0  0  0  0  0  0
   12.3187    2.9177    0.0000 H   0  0  0  0  0  0  0  0  0  0  0  0
   12.7172    2.2274    0.0000 H   0  0  0  0  0  0  0  0  0  0  0  0
   13.1847    1.4177    0.0000 H   0  0  0  0  0  0  0  0  0  0  0  0
   13.5832    0.7274    0.0000 H   0  0  0  0  0  0  0  0  0  0  0  0
   13.5398    3.7023    0.0000 H   0  0  0  0  0  0  0  0  0  0  0  0
   13.1413    4.3926    0.0000 H   0  0  0  0  0  0  0  0  0  0  0  0
   14.3322   -2.0000    0.0000 H   0  0  0  0  0  0  0  0  0  0  0  0
    4.2690   -1.5700    0.0000 H   0  0  0  0  0  0  0  0  0  0  0  0
   13.5832   -0.1074    0.0000 H   0  0  0  0  0  0  0  0  0  0  0  0
   13.1847   -0.7977    0.0000 H   0  0  0  0  0  0  0  0  0  0  0  0
   15.1982    1.1200    0.0000 H   0  0  0  0  0  0  0  0  0  0  0  0
   15.1982   -0.5000    0.0000 H   0  0  0  0  0  0  0  0  0  0  0  0
   12.3732    4.8469    0.0000 H   0  0  0  0  0  0  0  0  0  0  0  0
   11.5263    4.6200    0.0000 H   0  0  0  0  0  0  0  0  0  0  0  0
   11.7532    3.7731    0.0000 H   0  0  0  0  0  0  0  0  0  0  0  0
    3.8015   -1.2150    0.0000 H   0  0  0  0  0  0  0  0  0  0  0  0
    3.0044   -1.2150    0.0000 H   0  0  0  0  0  0  0  0  0  0  0  0
    4.4810   -3.7726    0.0000 H   0  0  0  0  0  0  0  0  0  0  0  0
    4.8796   -3.0823    0.0000 H   0  0  0  0  0  0  0  0  0  0  0  0
    2.0000   -1.8800    0.0000 H   0  0  0  0  0  0  0  0  0  0  0  0
    3.4030   -4.3100    0.0000 H   0  0  0  0  0  0  0  0  0  0  0  0
  1 14  1  0  0  0  0
  1 19  1  0  0  0  0
  2 14  2  0  0  0  0
  3 24  1  0  0  0  0
  3 62  1  0  0  0  0
  4 25  1  0  0  0  0
  4 63  1  0  0  0  0
  5  6  1  0  0  0  0
  5  7  1  0  0  0  0
  5 26  1  0  0  0  0
  5 27  1  0  0  0  0
  6  8  1  0  0  0  0
  6 28  1  0  0  0  0
  6 29  1  0  0  0  0
  7  9  1  0  0  0  0
  7 30  1  0  0  0  0
  7 31  1  0  0  0  0
  8 10  1  0  0  0  0
  8 32  1  0  0  0  0
  8 33  1  0  0  0  0
  9 11  1  0  0  0  0
  9 34  1  0  0  0  0
  9 35  1  0  0  0  0
 10 12  1  0  0  0  0
 10 36  1  0  0  0  0
 10 37  1  0  0  0  0
 11 14  1  0  0  0  0
 11 38  1  0  0  0  0
 11 39  1  0  0  0  0
 12 18  2  0  0  0  0
 12 40  1  0  0  0  0
 13 15  1  0  0  0  0
 13 16  1  0  0  0  0
 13 41  1  0  0  0  0
 13 42  1  0  0  0  0
 15 17  1  0  0  0  0
 15 43  1  0  0  0  0
 15 44  1  0  0  0  0
 16 21  1  0  0  0  0
 16 45  1  0  0  0  0
 16 46  1  0  0  0  0
 17 23  1  0  0  0  0
 17 47  1  0  0  0  0
 17 48  1  0  0  0  0
 18 20  1  0  0  0  0
 18 49  1  0  0  0  0
 19 24  1  0  0  0  0
 19 25  1  0  0  0  0
 19 50  1  0  0  0  0
 20 22  1  0  0  0  0
 20 51  1  0  0  0  0
 20 52  1  0  0  0  0
 21 22  2  0  0  0  0
 21 53  1  0  0  0  0
 22 54  1  0  0  0  0
 23 55  1  0  0  0  0
 23 56  1  0  0  0  0
 23 57  1  0  0  0  0
 24 58  1  0  0  0  0
 24 59  1  0  0  0  0
 25 60  1  0  0  0  0
 25 61  1  0  0  0  0
M  END
> <PUBCHEM_COMPOUND_CID>
5365676

> <PUBCHEM_COMPOUND_CANONICALIZED>
1

> <PUBCHEM_CACTVS_COMPLEXITY>
346

> <PUBCHEM_CACTVS_HBOND_ACCEPTOR>
4

> <PUBCHEM_CACTVS_HBOND_DONOR>
2

> <PUBCHEM_CACTVS_ROTATABLE_BOND>
18

> <PUBCHEM_CACTVS_SUBSKEYS>
AAADcfB4OAAAAAAAAAAAAAAAAAAAAAAAAAAAAAAAAAAAAAAAAAAAGgAACAAACBSggAICCAAABgCIACDSCAAAAAAgAAAICAEAAAgBEBIAAQACQAAFgAALAAOIyKCAAAAAAAAAAAAAAAAAAAAAAAAAAAAAAA==

> <PUBCHEM_IUPAC_OPENEYE_NAME>
[2-hydroxy-1-(hydroxymethyl)ethyl] (9Z,12Z)-octadeca-9,12-dienoate

> <PUBCHEM_IUPAC_CAS_NAME>
(9Z,12Z)-octadeca-9,12-dienoic acid 1,3-dihydroxypropan-2-yl ester

> <PUBCHEM_IUPAC_NAME_MARKUP>
1,3-dihydroxypropan-2-yl (9<I>Z</I>,12<I>Z</I>)-octadeca-9,12-dienoate

> <PUBCHEM_IUPAC_NAME>
1,3-dihydroxypropan-2-yl (9Z,12Z)-octadeca-9,12-dienoate

> <PUBCHEM_IUPAC_SYSTEMATIC_NAME>
1,3-bis(oxidanyl)propan-2-yl (9Z,12Z)-octadeca-9,12-dienoate

> <PUBCHEM_IUPAC_TRADITIONAL_NAME>
(9Z,12Z)-octadeca-9,12-dienoic acid (2-hydroxy-1-methylol-ethyl) ester

> <PUBCHEM_IUPAC_INCHI>
InChI=1S/C21H38O4/c1-2-3-4-5-6-7-8-9-10-11-12-13-14-15-16-17-21(24)25-20(18-22)19-23/h6-7,9-10,20,22-23H,2-5,8,11-19H2,1H3/b7-6-,10-9-

> <PUBCHEM_IUPAC_INCHIKEY>
IEPGNWMPIFDNSD-HZJYTTRNSA-N

> <PUBCHEM_XLOGP3_AA>
5.6

> <PUBCHEM_EXACT_MASS>
354.27701

> <PUBCHEM_MOLECULAR_FORMULA>
C21H38O4

> <PUBCHEM_MOLECULAR_WEIGHT>
354.5

> <PUBCHEM_OPENEYE_CAN_SMILES>
CCCCCC=CCC=CCCCCCCCC(=O)OC(CO)CO

> <PUBCHEM_OPENEYE_ISO_SMILES>
CCCCC/C=C\C/C=C\CCCCCCCC(=O)OC(CO)CO

> <PUBCHEM_CACTVS_TPSA>
66.8

> <PUBCHEM_MONOISOTOPIC_WEIGHT>
354.27701

> <PUBCHEM_TOTAL_CHARGE>
0

> <PUBCHEM_HEAVY_ATOM_COUNT>
25

> <PUBCHEM_ATOM_DEF_STEREO_COUNT>
0

> <PUBCHEM_ATOM_UDEF_STEREO_COUNT>
0

> <PUBCHEM_BOND_DEF_STEREO_COUNT>
2

> <PUBCHEM_BOND_UDEF_STEREO_COUNT>
0

> <PUBCHEM_ISOTOPIC_ATOM_COUNT>
0

> <PUBCHEM_COMPONENT_COUNT>
1

> <PUBCHEM_CACTVS_TAUTO_COUNT>
-1

> <PUBCHEM_COORDINATE_TYPE>
1
5
255

$$$$
