102594501
  -OEChem-09152005272D

153162  0     1  0  0  0  0  0999 V2000
    5.5982    7.3818    0.0000 O   0  0  0  0  0  0  0  0  0  0  0  0
    3.9370    6.2942    0.0000 O   0  0  0  0  0  0  0  0  0  0  0  0
   12.0262    2.0274    0.0000 O   0  0  0  0  0  0  0  0  0  0  0  0
   11.1602    0.5274    0.0000 O   0  0  0  0  0  0  0  0  0  0  0  0
   13.7583    1.0274    0.0000 O   0  0  0  0  0  0  0  0  0  0  0  0
   13.7583   -0.9726    0.0000 O   0  0  0  0  0  0  0  0  0  0  0  0
   12.0262   -1.9726    0.0000 O   0  0  0  0  0  0  0  0  0  0  0  0
    9.4281   -0.4726    0.0000 O   0  0  0  0  0  0  0  0  0  0  0  0
   14.6243    0.5274    0.0000 O   0  0  0  0  0  0  0  0  0  0  0  0
   10.2942   -1.9726    0.0000 O   0  0  0  0  0  0  0  0  0  0  0  0
   12.0262   -3.9726    0.0000 O   0  0  0  0  0  0  0  0  0  0  0  0
   15.4903   -1.9726    0.0000 O   0  0  0  0  0  0  0  0  0  0  0  0
   17.2224   -0.9726    0.0000 O   0  0  0  0  0  0  0  0  0  0  0  0
   10.2942   -4.9726    0.0000 O   0  0  0  0  0  0  0  0  0  0  0  0
   17.2224    1.0274    0.0000 O   0  0  0  0  0  0  0  0  0  0  0  0
    8.5621   -3.9726    0.0000 O   0  0  0  0  0  0  0  0  0  0  0  0
   11.1602   -5.4726    0.0000 O   0  0  0  0  0  0  0  0  0  0  0  0
   13.7583   -4.9726    0.0000 O   0  0  0  0  0  0  0  0  0  0  0  0
   13.7583   -6.9726    0.0000 O   0  0  0  0  0  0  0  0  0  0  0  0
   12.0262   -7.9726    0.0000 O   0  0  0  0  0  0  0  0  0  0  0  0
    6.6742    5.1511    0.0000 C   0  0  1  0  0  0  0  0  0  0  0  0
    7.5383    5.6545    0.0000 C   0  0  2  0  0  0  0  0  0  0  0  0
    5.9346    5.8154    0.0000 C   0  0  2  0  0  0  0  0  0  0  0  0
    8.4062    5.1578    0.0000 C   0  0  1  0  0  0  0  0  0  0  0  0
    6.3362    6.7247    0.0000 C   0  0  2  0  0  0  0  0  0  0  0  0
    8.4101    4.1578    0.0000 C   0  0  2  0  0  0  0  0  0  0  0  0
    7.3253    6.6255    0.0000 C   0  0  0  0  0  0  0  0  0  0  0  0
    6.6780    4.1511    0.0000 C   0  0  0  0  0  0  0  0  0  0  0  0
    4.9518    5.9183    0.0000 C   0  0  1  0  0  0  0  0  0  0  0  0
    7.5460    3.6545    0.0000 C   0  0  0  0  0  0  0  0  0  0  0  0
    9.3061    3.6266    0.0000 C   0  0  2  0  0  0  0  0  0  0  0  0
    4.7443    6.8844    0.0000 C   0  0  1  0  0  0  0  0  0  0  0  0
    5.8101    4.6478    0.0000 C   0  0  0  0  0  0  0  0  0  0  0  0
    9.2981    5.6959    0.0000 C   0  0  0  0  0  0  0  0  0  0  0  0
   10.2102    4.1439    0.0000 C   0  0  0  0  0  0  0  0  0  0  0  0
    9.2852    2.5418    0.0000 C   0  0  0  0  0  0  0  0  0  0  0  0
    4.2836    5.1743    0.0000 C   0  0  0  0  0  0  0  0  0  0  0  0
    4.6368    7.8786    0.0000 C   0  0  0  0  0  0  0  0  0  0  0  0
   10.2061    5.1856    0.0000 C   0  0  0  0  0  0  0  0  0  0  0  0
    8.4381    3.1299    0.0000 C   0  0  0  0  0  0  0  0  0  0  0  0
   11.1560    3.6123    0.0000 C   0  0  0  0  0  0  0  0  0  0  0  0
   10.2185    1.9885    0.0000 C   0  0  0  0  0  0  0  0  0  0  0  0
   11.1602    2.5274    0.0000 C   0  0  2  0  0  0  0  0  0  0  0  0
    3.7220    8.2826    0.0000 C   0  0  0  0  0  0  0  0  0  0  0  0
    2.9148    7.6924    0.0000 C   0  0  2  0  0  0  0  0  0  0  0  0
    3.0223    6.6982    0.0000 C   0  0  0  0  0  0  0  0  0  0  0  0
    2.0000    8.0965    0.0000 C   0  0  0  0  0  0  0  0  0  0  0  0
   12.0262    1.0274    0.0000 C   0  0  2  0  0  0  0  0  0  0  0  0
   12.8922    0.5274    0.0000 C   0  0  1  0  0  0  0  0  0  0  0  0
   12.8922   -0.4726    0.0000 C   0  0  2  0  0  0  0  0  0  0  0  0
   11.1602   -0.4726    0.0000 C   0  0  1  0  0  0  0  0  0  0  0  0
   12.0262   -0.9726    0.0000 C   0  0  1  0  0  0  0  0  0  0  0  0
   10.2942   -0.9726    0.0000 C   0  0  0  0  0  0  0  0  0  0  0  0
   14.6243   -0.4726    0.0000 C   0  0  2  0  0  0  0  0  0  0  0  0
   11.1602   -2.4726    0.0000 C   0  0  2  0  0  0  0  0  0  0  0  0
   15.4903   -0.9726    0.0000 C   0  0  1  0  0  0  0  0  0  0  0  0
   11.1602   -3.4726    0.0000 C   0  0  1  0  0  0  0  0  0  0  0  0
   16.3563   -0.4726    0.0000 C   0  0  1  0  0  0  0  0  0  0  0  0
   10.2942   -3.9726    0.0000 C   0  0  1  0  0  0  0  0  0  0  0  0
   15.4903    1.0274    0.0000 C   0  0  2  0  0  0  0  0  0  0  0  0
   16.3563    0.5274    0.0000 C   0  0  2  0  0  0  0  0  0  0  0  0
    9.4281   -2.4726    0.0000 C   0  0  2  0  0  0  0  0  0  0  0  0
    9.4281   -3.4726    0.0000 C   0  0  2  0  0  0  0  0  0  0  0  0
   15.4903    2.0274    0.0000 C   0  0  0  0  0  0  0  0  0  0  0  0
    8.5621   -1.9726    0.0000 C   0  0  0  0  0  0  0  0  0  0  0  0
   12.0262   -4.9726    0.0000 C   0  0  2  0  0  0  0  0  0  0  0  0
   12.8922   -5.4726    0.0000 C   0  0  1  0  0  0  0  0  0  0  0  0
   12.8922   -6.4726    0.0000 C   0  0  1  0  0  0  0  0  0  0  0  0
   11.1602   -6.4726    0.0000 C   0  0  2  0  0  0  0  0  0  0  0  0
   12.0262   -6.9726    0.0000 C   0  0  2  0  0  0  0  0  0  0  0  0
   10.2942   -6.9726    0.0000 C   0  0  0  0  0  0  0  0  0  0  0  0
    8.2234    6.1576    0.0000 H   0  0  0  0  0  0  0  0  0  0  0  0
    5.5895    5.0386    0.0000 H   0  0  0  0  0  0  0  0  0  0  0  0
    8.3964    6.0078    0.0000 H   0  0  0  0  0  0  0  0  0  0  0  0
    6.6779    7.5030    0.0000 H   0  0  0  0  0  0  0  0  0  0  0  0
    9.1478    4.5800    0.0000 H   0  0  0  0  0  0  0  0  0  0  0  0
    7.9415    6.6939    0.0000 H   0  0  0  0  0  0  0  0  0  0  0  0
    7.3220    7.2455    0.0000 H   0  0  0  0  0  0  0  0  0  0  0  0
    6.0670    4.2564    0.0000 H   0  0  0  0  0  0  0  0  0  0  0  0
    6.4682    3.5677    0.0000 H   0  0  0  0  0  0  0  0  0  0  0  0
    4.3526    6.0777    0.0000 H   0  0  0  0  0  0  0  0  0  0  0  0
    7.1493    3.1780    0.0000 H   0  0  0  0  0  0  0  0  0  0  0  0
    7.9463    3.1811    0.0000 H   0  0  0  0  0  0  0  0  0  0  0  0
    5.4980    5.1835    0.0000 H   0  0  0  0  0  0  0  0  0  0  0  0
    5.2744    4.3357    0.0000 H   0  0  0  0  0  0  0  0  0  0  0  0
    6.1222    4.1121    0.0000 H   0  0  0  0  0  0  0  0  0  0  0  0
    9.6899    6.1764    0.0000 H   0  0  0  0  0  0  0  0  0  0  0  0
    8.8917    6.1641    0.0000 H   0  0  0  0  0  0  0  0  0  0  0  0
    8.6765    2.6596    0.0000 H   0  0  0  0  0  0  0  0  0  0  0  0
    9.0649    1.9622    0.0000 H   0  0  0  0  0  0  0  0  0  0  0  0
    3.8223    5.5886    0.0000 H   0  0  0  0  0  0  0  0  0  0  0  0
    3.8693    4.7130    0.0000 H   0  0  0  0  0  0  0  0  0  0  0  0
    4.7449    4.7600    0.0000 H   0  0  0  0  0  0  0  0  0  0  0  0
    5.2554    7.8372    0.0000 H   0  0  0  0  0  0  0  0  0  0  0  0
    4.7850    8.4807    0.0000 H   0  0  0  0  0  0  0  0  0  0  0  0
   10.7407    5.4997    0.0000 H   0  0  0  0  0  0  0  0  0  0  0  0
    8.1302    3.6681    0.0000 H   0  0  0  0  0  0  0  0  0  0  0  0
    7.9000    2.8220    0.0000 H   0  0  0  0  0  0  0  0  0  0  0  0
    8.7460    2.5918    0.0000 H   0  0  0  0  0  0  0  0  0  0  0  0
   11.7673    3.5086    0.0000 H   0  0  0  0  0  0  0  0  0  0  0  0
   11.3628    4.1968    0.0000 H   0  0  0  0  0  0  0  0  0  0  0  0
    9.8157    1.5171    0.0000 H   0  0  0  0  0  0  0  0  0  0  0  0
   10.6139    1.5110    0.0000 H   0  0  0  0  0  0  0  0  0  0  0  0
   11.1590    1.9074    0.0000 H   0  0  0  0  0  0  0  0  0  0  0  0
    4.0672    8.7977    0.0000 H   0  0  0  0  0  0  0  0  0  0  0  0
    3.2747    8.7120    0.0000 H   0  0  0  0  0  0  0  0  0  0  0  0
    2.4143    7.3265    0.0000 H   0  0  0  0  0  0  0  0  0  0  0  0
    2.4036    6.7396    0.0000 H   0  0  0  0  0  0  0  0  0  0  0  0
    2.8741    6.0962    0.0000 H   0  0  0  0  0  0  0  0  0  0  0  0
    2.2505    8.6636    0.0000 H   0  0  0  0  0  0  0  0  0  0  0  0
    1.4328    8.3469    0.0000 H   0  0  0  0  0  0  0  0  0  0  0  0
    1.7495    7.5293    0.0000 H   0  0  0  0  0  0  0  0  0  0  0  0
   12.5631    1.3374    0.0000 H   0  0  0  0  0  0  0  0  0  0  0  0
   13.4292    0.2174    0.0000 H   0  0  0  0  0  0  0  0  0  0  0  0
   13.4292   -0.1626    0.0000 H   0  0  0  0  0  0  0  0  0  0  0  0
   10.6232   -0.1626    0.0000 H   0  0  0  0  0  0  0  0  0  0  0  0
   12.5631   -1.2826    0.0000 H   0  0  0  0  0  0  0  0  0  0  0  0
   13.7583    1.6474    0.0000 H   0  0  0  0  0  0  0  0  0  0  0  0
    9.8956   -1.4476    0.0000 H   0  0  0  0  0  0  0  0  0  0  0  0
   10.6927   -1.4476    0.0000 H   0  0  0  0  0  0  0  0  0  0  0  0
   14.0873   -0.1626    0.0000 H   0  0  0  0  0  0  0  0  0  0  0  0
   11.1602   -1.8526    0.0000 H   0  0  0  0  0  0  0  0  0  0  0  0
    8.8912   -0.7826    0.0000 H   0  0  0  0  0  0  0  0  0  0  0  0
   16.0272   -1.2826    0.0000 H   0  0  0  0  0  0  0  0  0  0  0  0
   11.1602   -4.0926    0.0000 H   0  0  0  0  0  0  0  0  0  0  0  0
   16.8933   -0.1626    0.0000 H   0  0  0  0  0  0  0  0  0  0  0  0
    9.7572   -4.2826    0.0000 H   0  0  0  0  0  0  0  0  0  0  0  0
   14.9534    1.3374    0.0000 H   0  0  0  0  0  0  0  0  0  0  0  0
   16.3563    1.1474    0.0000 H   0  0  0  0  0  0  0  0  0  0  0  0
    9.4281   -1.8526    0.0000 H   0  0  0  0  0  0  0  0  0  0  0  0
    8.8912   -3.1627    0.0000 H   0  0  0  0  0  0  0  0  0  0  0  0
   16.0272   -2.2826    0.0000 H   0  0  0  0  0  0  0  0  0  0  0  0
   16.1103    2.0274    0.0000 H   0  0  0  0  0  0  0  0  0  0  0  0
   15.4903    2.6474    0.0000 H   0  0  0  0  0  0  0  0  0  0  0  0
   14.8703    2.0274    0.0000 H   0  0  0  0  0  0  0  0  0  0  0  0
    8.8721   -1.4357    0.0000 H   0  0  0  0  0  0  0  0  0  0  0  0
    8.0252   -1.6626    0.0000 H   0  0  0  0  0  0  0  0  0  0  0  0
    8.2521   -2.5096    0.0000 H   0  0  0  0  0  0  0  0  0  0  0  0
   17.7593   -0.6626    0.0000 H   0  0  0  0  0  0  0  0  0  0  0  0
   12.5631   -4.6626    0.0000 H   0  0  0  0  0  0  0  0  0  0  0  0
    9.7572   -5.2826    0.0000 H   0  0  0  0  0  0  0  0  0  0  0  0
   17.2224    1.6474    0.0000 H   0  0  0  0  0  0  0  0  0  0  0  0
    8.0252   -3.6626    0.0000 H   0  0  0  0  0  0  0  0  0  0  0  0
   13.4292   -5.7826    0.0000 H   0  0  0  0  0  0  0  0  0  0  0  0
   13.4292   -6.1626    0.0000 H   0  0  0  0  0  0  0  0  0  0  0  0
   10.6232   -6.1626    0.0000 H   0  0  0  0  0  0  0  0  0  0  0  0
   12.5631   -7.2826    0.0000 H   0  0  0  0  0  0  0  0  0  0  0  0
   14.2952   -5.2826    0.0000 H   0  0  0  0  0  0  0  0  0  0  0  0
    9.9842   -6.4357    0.0000 H   0  0  0  0  0  0  0  0  0  0  0  0
    9.7572   -7.2826    0.0000 H   0  0  0  0  0  0  0  0  0  0  0  0
   10.6042   -7.5096    0.0000 H   0  0  0  0  0  0  0  0  0  0  0  0
   13.7583   -7.5926    0.0000 H   0  0  0  0  0  0  0  0  0  0  0  0
   11.4893   -8.2826    0.0000 H   0  0  0  0  0  0  0  0  0  0  0  0
  1 25  1  0  0  0  0
 32  1  1  6  0  0  0
  2 32  1  0  0  0  0
  2 46  1  0  0  0  0
 43  3  1  1  0  0  0
 48  3  1  1  0  0  0
  4 48  1  0  0  0  0
  4 51  1  0  0  0  0
 49  5  1  6  0  0  0
  5118  1  0  0  0  0
 50  6  1  1  0  0  0
 54  6  1  6  0  0  0
 52  7  1  6  0  0  0
 55  7  1  1  0  0  0
  8 53  1  0  0  0  0
  8123  1  0  0  0  0
  9 54  1  0  0  0  0
  9 60  1  0  0  0  0
 10 55  1  0  0  0  0
 10 62  1  0  0  0  0
 57 11  1  6  0  0  0
 66 11  1  1  0  0  0
 56 12  1  1  0  0  0
 12132  1  0  0  0  0
 58 13  1  1  0  0  0
 13139  1  0  0  0  0
 59 14  1  6  0  0  0
 14141  1  0  0  0  0
 61 15  1  6  0  0  0
 15142  1  0  0  0  0
 63 16  1  1  0  0  0
 16143  1  0  0  0  0
 17 66  1  0  0  0  0
 17 69  1  0  0  0  0
 67 18  1  6  0  0  0
 18148  1  0  0  0  0
 68 19  1  6  0  0  0
 19152  1  0  0  0  0
 70 20  1  1  0  0  0
 20153  1  0  0  0  0
 21 22  1  0  0  0  0
 21 23  1  0  0  0  0
 21 28  1  0  0  0  0
 21 33  1  1  0  0  0
 22 24  1  0  0  0  0
 22 27  1  0  0  0  0
 22 72  1  6  0  0  0
 23 25  1  0  0  0  0
 23 29  1  0  0  0  0
 23 73  1  6  0  0  0
 24 26  1  0  0  0  0
 24 34  1  0  0  0  0
 24 74  1  1  0  0  0
 25 27  1  0  0  0  0
 25 75  1  6  0  0  0
 26 30  1  0  0  0  0
 26 31  1  0  0  0  0
 26 76  1  6  0  0  0
 27 77  1  0  0  0  0
 27 78  1  0  0  0  0
 28 30  1  0  0  0  0
 28 79  1  0  0  0  0
 28 80  1  0  0  0  0
 29 32  1  0  0  0  0
 29 37  1  6  0  0  0
 29 81  1  0  0  0  0
 30 82  1  0  0  0  0
 30 83  1  0  0  0  0
 31 35  1  0  0  0  0
 31 36  1  0  0  0  0
 31 40  1  1  0  0  0
 32 38  1  0  0  0  0
 33 84  1  0  0  0  0
 33 85  1  0  0  0  0
 33 86  1  0  0  0  0
 34 39  1  0  0  0  0
 34 87  1  0  0  0  0
 34 88  1  0  0  0  0
 35 39  2  0  0  0  0
 35 41  1  0  0  0  0
 36 42  1  0  0  0  0
 36 89  1  0  0  0  0
 36 90  1  0  0  0  0
 37 91  1  0  0  0  0
 37 92  1  0  0  0  0
 37 93  1  0  0  0  0
 38 44  1  0  0  0  0
 38 94  1  0  0  0  0
 38 95  1  0  0  0  0
 39 96  1  0  0  0  0
 40 97  1  0  0  0  0
 40 98  1  0  0  0  0
 40 99  1  0  0  0  0
 41 43  1  0  0  0  0
 41100  1  0  0  0  0
 41101  1  0  0  0  0
 42 43  1  0  0  0  0
 42102  1  0  0  0  0
 42103  1  0  0  0  0
 43104  1  0  0  0  0
 44 45  1  0  0  0  0
 44105  1  0  0  0  0
 44106  1  0  0  0  0
 45 46  1  0  0  0  0
 45 47  1  6  0  0  0
 45107  1  0  0  0  0
 46108  1  0  0  0  0
 46109  1  0  0  0  0
 47110  1  0  0  0  0
 47111  1  0  0  0  0
 47112  1  0  0  0  0
 48 49  1  0  0  0  0
 48113  1  0  0  0  0
 49 50  1  0  0  0  0
 49114  1  0  0  0  0
 50 52  1  0  0  0  0
 50115  1  0  0  0  0
 51 52  1  0  0  0  0
 51 53  1  1  0  0  0
 51116  1  0  0  0  0
 52117  1  0  0  0  0
 53119  1  0  0  0  0
 53120  1  0  0  0  0
 54 56  1  0  0  0  0
 54121  1  0  0  0  0
 55 57  1  0  0  0  0
 55122  1  0  0  0  0
 56 58  1  0  0  0  0
 56124  1  0  0  0  0
 57 59  1  0  0  0  0
 57125  1  0  0  0  0
 58 61  1  0  0  0  0
 58126  1  0  0  0  0
 59 63  1  0  0  0  0
 59127  1  0  0  0  0
 60 61  1  0  0  0  0
 60 64  1  1  0  0  0
 60128  1  0  0  0  0
 61129  1  0  0  0  0
 62 63  1  0  0  0  0
 62 65  1  6  0  0  0
 62130  1  0  0  0  0
 63131  1  0  0  0  0
 64133  1  0  0  0  0
 64134  1  0  0  0  0
 64135  1  0  0  0  0
 65136  1  0  0  0  0
 65137  1  0  0  0  0
 65138  1  0  0  0  0
 66 67  1  0  0  0  0
 66140  1  0  0  0  0
 67 68  1  0  0  0  0
 67144  1  0  0  0  0
 68 70  1  0  0  0  0
 68145  1  0  0  0  0
 69 70  1  0  0  0  0
 69 71  1  6  0  0  0
 69146  1  0  0  0  0
 70147  1  0  0  0  0
 71149  1  0  0  0  0
 71150  1  0  0  0  0
 71151  1  0  0  0  0
M  END
> <PUBCHEM_COMPOUND_CID>
102594501

> <PUBCHEM_COMPOUND_CANONICALIZED>
1

> <PUBCHEM_CACTVS_COMPLEXITY>
1900

> <PUBCHEM_CACTVS_HBOND_ACCEPTOR>
20

> <PUBCHEM_CACTVS_HBOND_DONOR>
10

> <PUBCHEM_CACTVS_ROTATABLE_BOND>
9

> <PUBCHEM_CACTVS_SUBSKEYS>
AAADcfB8PgAAAAAAAAAAAAAAAAAAAaIAAAA0aJEiQAASAGCAAAAAGgAACAAADxSwgAMCCAAABgCAAiBCAAAAAAAgAAAACAAAAAgREAIAAQAiQAAFwAAPAAPA4PwPgAAAAAAAAADAAAQAACAAAYAADAAAAA==

> <PUBCHEM_IUPAC_OPENEYE_NAME>
(2S,3R,4R,5R,6S)-2-[(2S,3R,4R,5R,6S)-4,5-dihydroxy-2-[(2R,3R,4R,5R,6R)-5-hydroxy-2-(hydroxymethyl)-6-[(1S,2S,4S,5'R,6R,7S,8R,9S,12S,13R,16S)-5',7,9,13-tetramethylspiro[5-oxapentacyclo[10.8.0.02,9.04,8.013,18]icos-18-ene-6,2'-tetrahydropyran]-16-yl]oxy-4-[(2S,3R,4R,5R,6S)-3,4,5-trihydroxy-6-methyl-tetrahydropyran-2-yl]oxy-tetrahydropyran-3-yl]oxy-6-methyl-tetrahydropyran-3-yl]oxy-6-methyl-tetrahydropyran-3,4,5-triol

> <PUBCHEM_IUPAC_CAS_NAME>
(2S,3R,4R,5R,6S)-2-[[(2S,3R,4R,5R,6S)-4,5-dihydroxy-2-[[(2R,3R,4R,5R,6R)-5-hydroxy-2-(hydroxymethyl)-6-[[(1S,2S,4S,5'R,6R,7S,8R,9S,12S,13R,16S)-5',7,9,13-tetramethyl-16-spiro[5-oxapentacyclo[10.8.0.02,9.04,8.013,18]eicos-18-ene-6,2'-oxane]yl]oxy]-4-[[(2S,3R,4R,5R,6S)-3,4,5-trihydroxy-6-methyl-2-oxanyl]oxy]-3-oxanyl]oxy]-6-methyl-3-oxanyl]oxy]-6-methyloxane-3,4,5-triol

> <PUBCHEM_IUPAC_NAME_MARKUP>
(2<I>S</I>,3<I>R</I>,4<I>R</I>,5<I>R</I>,6<I>S</I>)-2-[(2<I>S</I>,3<I>R</I>,4<I>R</I>,5<I>R</I>,6<I>S</I>)-4,5-dihydroxy-2-[(2<I>R</I>,3<I>R</I>,4<I>R</I>,5<I>R</I>,6<I>R</I>)-5-hydroxy-2-(hydroxymethyl)-6-[(1<I>S</I>,2<I>S</I>,4<I>S</I>,5&apos;<I>R</I>,6<I>R</I>,7<I>S</I>,8<I>R</I>,9<I>S</I>,12<I>S</I>,13<I>R</I>,16<I>S</I>)-5&apos;,7,9,13-tetramethylspiro[5-oxapentacyclo[10.8.0.0<SUP>2,9</SUP>.0<SUP>4,8</SUP>.0<SUP>13,18</SUP>]icos-18-ene-6,2&apos;-oxane]-16-yl]oxy-4-[(2<I>S</I>,3<I>R</I>,4<I>R</I>,5<I>R</I>,6<I>S</I>)-3,4,5-trihydroxy-6-methyloxan-2-yl]oxyoxan-3-yl]oxy-6-methyloxan-3-yl]oxy-6-methyloxane-3,4,5-triol

> <PUBCHEM_IUPAC_NAME>
(2S,3R,4R,5R,6S)-2-[(2S,3R,4R,5R,6S)-4,5-dihydroxy-2-[(2R,3R,4R,5R,6R)-5-hydroxy-2-(hydroxymethyl)-6-[(1S,2S,4S,5'R,6R,7S,8R,9S,12S,13R,16S)-5',7,9,13-tetramethylspiro[5-oxapentacyclo[10.8.0.02,9.04,8.013,18]icos-18-ene-6,2'-oxane]-16-yl]oxy-4-[(2S,3R,4R,5R,6S)-3,4,5-trihydroxy-6-methyloxan-2-yl]oxyoxan-3-yl]oxy-6-methyloxan-3-yl]oxy-6-methyloxane-3,4,5-triol

> <PUBCHEM_IUPAC_SYSTEMATIC_NAME>
(2S,3R,4R,5R,6S)-2-[(2S,3R,4R,5R,6S)-2-[(2R,3R,4R,5R,6R)-2-(hydroxymethyl)-4-[(2S,3R,4R,5R,6S)-6-methyl-3,4,5-tris(oxidanyl)oxan-2-yl]oxy-5-oxidanyl-6-[(1S,2S,4S,5'R,6R,7S,8R,9S,12S,13R,16S)-5',7,9,13-tetramethylspiro[5-oxapentacyclo[10.8.0.02,9.04,8.013,18]icos-18-ene-6,2'-oxane]-16-yl]oxy-oxan-3-yl]oxy-6-methyl-4,5-bis(oxidanyl)oxan-3-yl]oxy-6-methyl-oxane-3,4,5-triol

> <PUBCHEM_IUPAC_TRADITIONAL_NAME>
(2S,3R,4R,5R,6S)-2-[(2S,3R,4R,5R,6S)-4,5-dihydroxy-2-[(2R,3R,4R,5R,6R)-5-hydroxy-2-methylol-6-[(1S,2S,4S,5'R,6R,7S,8R,9S,12S,13R,16S)-5',7,9,13-tetramethylspiro[5-oxapentacyclo[10.8.0.02,9.04,8.013,18]eicos-18-ene-6,2'-tetrahydropyran]-16-yl]oxy-4-[(2S,3R,4R,5R,6S)-3,4,5-trihydroxy-6-methyl-tetrahydropyran-2-yl]oxy-tetrahydropyran-3-yl]oxy-6-methyl-tetrahydropyran-3-yl]oxy-6-methyl-tetrahydropyran-3,4,5-triol

> <PUBCHEM_IUPAC_INCHI>
InChI=1S/C51H82O20/c1-20-10-15-51(62-19-20)21(2)32-30(71-51)17-29-27-9-8-25-16-26(11-13-49(25,6)28(27)12-14-50(29,32)7)66-47-41(61)43(69-45-39(59)36(56)33(53)22(3)63-45)42(31(18-52)67-47)68-48-44(38(58)35(55)24(5)65-48)70-46-40(60)37(57)34(54)23(4)64-46/h8,20-24,26-48,52-61H,9-19H2,1-7H3/t20-,21+,22+,23+,24+,26+,27-,28+,29+,30+,31-,32+,33+,34+,35+,36-,37-,38-,39-,40-,41-,42-,43-,44-,45+,46+,47-,48+,49+,50+,51-/m1/s1

> <PUBCHEM_IUPAC_INCHIKEY>
SPDRGXNPOLRBGD-XJADHDRTSA-N

> <PUBCHEM_XLOGP3_AA>
0.2

> <PUBCHEM_EXACT_MASS>
1014.539945

> <PUBCHEM_MOLECULAR_FORMULA>
C51H82O20

> <PUBCHEM_MOLECULAR_WEIGHT>
1015.2

> <PUBCHEM_OPENEYE_CAN_SMILES>
CC1CCC2(C(C3C(O2)CC4C3(CCC5C4CC=C6C5(CCC(C6)OC7C(C(C(C(O7)CO)OC8C(C(C(C(O8)C)O)O)OC9C(C(C(C(O9)C)O)O)O)OC2C(C(C(C(O2)C)O)O)O)O)C)C)C)OC1

> <PUBCHEM_OPENEYE_ISO_SMILES>
C[C@@H]1CC[C@@]2([C@H]([C@H]3[C@@H](O2)C[C@@H]4[C@@]3(CC[C@H]5[C@H]4CC=C6[C@@]5(CC[C@@H](C6)O[C@H]7[C@@H]([C@H]([C@@H]([C@H](O7)CO)O[C@H]8[C@@H]([C@@H]([C@H]([C@@H](O8)C)O)O)O[C@H]9[C@@H]([C@@H]([C@H]([C@@H](O9)C)O)O)O)O[C@H]2[C@@H]([C@@H]([C@H]([C@@H](O2)C)O)O)O)O)C)C)C)OC1

> <PUBCHEM_CACTVS_TPSA>
295

> <PUBCHEM_MONOISOTOPIC_WEIGHT>
1014.539945

> <PUBCHEM_TOTAL_CHARGE>
0

> <PUBCHEM_HEAVY_ATOM_COUNT>
71

> <PUBCHEM_ATOM_DEF_STEREO_COUNT>
31

> <PUBCHEM_ATOM_UDEF_STEREO_COUNT>
0

> <PUBCHEM_BOND_DEF_STEREO_COUNT>
0

> <PUBCHEM_BOND_UDEF_STEREO_COUNT>
0

> <PUBCHEM_ISOTOPIC_ATOM_COUNT>
0

> <PUBCHEM_COMPONENT_COUNT>
1

> <PUBCHEM_CACTVS_TAUTO_COUNT>
-1

> <PUBCHEM_COORDINATE_TYPE>
1
5
255

> <PUBCHEM_BONDANNOTATIONS>
32  1  6
57  11  6
66  11  5
56  12  5
58  13  5
59  14  6
61  15  6
63  16  5
67  18  6
68  19  6
70  20  5
21  33  5
22  72  6
23  73  6
24  74  5
25  75  6
26  76  6
29  37  6
43  3  5
48  3  5
31  40  5
45  47  6
49  5  6
51  53  5
50  6  5
54  6  6
60  64  5
62  65  6
69  71  6
52  7  6
55  7  5

$$$$
