44147726
  -OEChem-09152004322D

 74 72  0     1  0  0  0  0  0999 V2000
   16.1254    1.5000    0.0000 O   0  0  0  0  0  0  0  0  0  0  0  0
   15.2594    0.0000    0.0000 O   0  0  0  0  0  0  0  0  0  0  0  0
   17.8574    2.5000    0.0000 O   0  0  0  0  0  0  0  0  0  0  0  0
   19.5895    1.5000    0.0000 O   0  0  0  0  0  0  0  0  0  0  0  0
    9.1972    6.6200    0.0000 O   0  0  0  0  0  0  0  0  0  0  0  0
   10.9292    6.6200    0.0000 O   0  0  0  0  0  0  0  0  0  0  0  0
   10.0632    5.1200    0.0000 O   0  0  0  0  0  0  0  0  0  0  0  0
    7.4651    1.5000    0.0000 C   0  0  0  0  0  0  0  0  0  0  0  0
    8.3312    1.0000    0.0000 C   0  0  0  0  0  0  0  0  0  0  0  0
    6.5991    1.0000    0.0000 C   0  0  0  0  0  0  0  0  0  0  0  0
    9.1972    1.5000    0.0000 C   0  0  0  0  0  0  0  0  0  0  0  0
    5.7331    1.5000    0.0000 C   0  0  0  0  0  0  0  0  0  0  0  0
   10.0632    1.0000    0.0000 C   0  0  0  0  0  0  0  0  0  0  0  0
    4.8671    1.0000    0.0000 C   0  0  0  0  0  0  0  0  0  0  0  0
   10.9292    1.5000    0.0000 C   0  0  0  0  0  0  0  0  0  0  0  0
    4.0010    1.5000    0.0000 C   0  0  0  0  0  0  0  0  0  0  0  0
   11.7953    1.0000    0.0000 C   0  0  0  0  0  0  0  0  0  0  0  0
    3.1350    1.0000    0.0000 C   0  0  0  0  0  0  0  0  0  0  0  0
   12.6613    1.5000    0.0000 C   0  0  0  0  0  0  0  0  0  0  0  0
    2.2690    1.5000    0.0000 C   0  0  0  0  0  0  0  0  0  0  0  0
   13.5273    1.0000    0.0000 C   0  0  0  0  0  0  0  0  0  0  0  0
    1.4030    1.0000    0.0000 C   0  0  0  0  0  0  0  0  0  0  0  0
   14.3933    1.5000    0.0000 C   0  0  0  0  0  0  0  0  0  0  0  0
    0.5369    1.5000    0.0000 C   0  0  0  0  0  0  0  0  0  0  0  0
   15.2594    1.0000    0.0000 C   0  0  0  0  0  0  0  0  0  0  0  0
   16.9914    1.0000    0.0000 C   0  0  0  0  0  0  0  0  0  0  0  0
   17.8574    1.5000    0.0000 C   0  0  3  0  0  0  0  0  0  0  0  0
   18.7235    1.0000    0.0000 C   0  0  0  0  0  0  0  0  0  0  0  0
   10.0632    6.1200    0.0000 B   0  0  0  0  0  0  0  0  0  0  0  0
    7.8637    1.9750    0.0000 H   0  0  0  0  0  0  0  0  0  0  0  0
    7.0666    1.9750    0.0000 H   0  0  0  0  0  0  0  0  0  0  0  0
    7.9326    0.5251    0.0000 H   0  0  0  0  0  0  0  0  0  0  0  0
    8.7297    0.5251    0.0000 H   0  0  0  0  0  0  0  0  0  0  0  0
    6.2006    0.5251    0.0000 H   0  0  0  0  0  0  0  0  0  0  0  0
    6.9976    0.5251    0.0000 H   0  0  0  0  0  0  0  0  0  0  0  0
    9.5957    1.9750    0.0000 H   0  0  0  0  0  0  0  0  0  0  0  0
    8.7987    1.9750    0.0000 H   0  0  0  0  0  0  0  0  0  0  0  0
    6.1316    1.9750    0.0000 H   0  0  0  0  0  0  0  0  0  0  0  0
    5.3346    1.9750    0.0000 H   0  0  0  0  0  0  0  0  0  0  0  0
    9.6647    0.5251    0.0000 H   0  0  0  0  0  0  0  0  0  0  0  0
   10.4617    0.5251    0.0000 H   0  0  0  0  0  0  0  0  0  0  0  0
    4.4685    0.5251    0.0000 H   0  0  0  0  0  0  0  0  0  0  0  0
    5.2656    0.5251    0.0000 H   0  0  0  0  0  0  0  0  0  0  0  0
   11.3278    1.9750    0.0000 H   0  0  0  0  0  0  0  0  0  0  0  0
   10.5307    1.9750    0.0000 H   0  0  0  0  0  0  0  0  0  0  0  0
    4.3996    1.9750    0.0000 H   0  0  0  0  0  0  0  0  0  0  0  0
    3.6025    1.9750    0.0000 H   0  0  0  0  0  0  0  0  0  0  0  0
   11.3967    0.5251    0.0000 H   0  0  0  0  0  0  0  0  0  0  0  0
   12.1938    0.5251    0.0000 H   0  0  0  0  0  0  0  0  0  0  0  0
    2.7365    0.5251    0.0000 H   0  0  0  0  0  0  0  0  0  0  0  0
    3.5335    0.5251    0.0000 H   0  0  0  0  0  0  0  0  0  0  0  0
   13.0598    1.9750    0.0000 H   0  0  0  0  0  0  0  0  0  0  0  0
   12.2628    1.9750    0.0000 H   0  0  0  0  0  0  0  0  0  0  0  0
    2.6675    1.9750    0.0000 H   0  0  0  0  0  0  0  0  0  0  0  0
    1.8705    1.9750    0.0000 H   0  0  0  0  0  0  0  0  0  0  0  0
   13.1288    0.5251    0.0000 H   0  0  0  0  0  0  0  0  0  0  0  0
   13.9258    0.5251    0.0000 H   0  0  0  0  0  0  0  0  0  0  0  0
    1.0044    0.5251    0.0000 H   0  0  0  0  0  0  0  0  0  0  0  0
    1.8015    0.5251    0.0000 H   0  0  0  0  0  0  0  0  0  0  0  0
   14.7919    1.9750    0.0000 H   0  0  0  0  0  0  0  0  0  0  0  0
   13.9948    1.9750    0.0000 H   0  0  0  0  0  0  0  0  0  0  0  0
    0.8469    2.0369    0.0000 H   0  0  0  0  0  0  0  0  0  0  0  0
    0.0000    1.8100    0.0000 H   0  0  0  0  0  0  0  0  0  0  0  0
    0.2269    0.9631    0.0000 H   0  0  0  0  0  0  0  0  0  0  0  0
   16.5929    0.5251    0.0000 H   0  0  0  0  0  0  0  0  0  0  0  0
   17.3899    0.5251    0.0000 H   0  0  0  0  0  0  0  0  0  0  0  0
   18.3944    1.8100    0.0000 H   0  0  0  0  0  0  0  0  0  0  0  0
   18.3249    0.5251    0.0000 H   0  0  0  0  0  0  0  0  0  0  0  0
   19.1220    0.5251    0.0000 H   0  0  0  0  0  0  0  0  0  0  0  0
   18.3944    2.8100    0.0000 H   0  0  0  0  0  0  0  0  0  0  0  0
   20.1264    1.1900    0.0000 H   0  0  0  0  0  0  0  0  0  0  0  0
    8.6602    6.3100    0.0000 H   0  0  0  0  0  0  0  0  0  0  0  0
   11.4662    6.3100    0.0000 H   0  0  0  0  0  0  0  0  0  0  0  0
    9.5263    4.8100    0.0000 H   0  0  0  0  0  0  0  0  0  0  0  0
  1 25  1  0  0  0  0
  1 26  1  0  0  0  0
  2 25  2  0  0  0  0
  3 27  1  0  0  0  0
  3 70  1  0  0  0  0
  4 28  1  0  0  0  0
  4 71  1  0  0  0  0
  5 29  1  0  0  0  0
  5 72  1  0  0  0  0
  6 29  1  0  0  0  0
  6 73  1  0  0  0  0
  7 29  1  0  0  0  0
  7 74  1  0  0  0  0
  8  9  1  0  0  0  0
  8 10  1  0  0  0  0
  8 30  1  0  0  0  0
  8 31  1  0  0  0  0
  9 11  1  0  0  0  0
  9 32  1  0  0  0  0
  9 33  1  0  0  0  0
 10 12  1  0  0  0  0
 10 34  1  0  0  0  0
 10 35  1  0  0  0  0
 11 13  1  0  0  0  0
 11 36  1  0  0  0  0
 11 37  1  0  0  0  0
 12 14  1  0  0  0  0
 12 38  1  0  0  0  0
 12 39  1  0  0  0  0
 13 15  1  0  0  0  0
 13 40  1  0  0  0  0
 13 41  1  0  0  0  0
 14 16  1  0  0  0  0
 14 42  1  0  0  0  0
 14 43  1  0  0  0  0
 15 17  1  0  0  0  0
 15 44  1  0  0  0  0
 15 45  1  0  0  0  0
 16 18  1  0  0  0  0
 16 46  1  0  0  0  0
 16 47  1  0  0  0  0
 17 19  1  0  0  0  0
 17 48  1  0  0  0  0
 17 49  1  0  0  0  0
 18 20  1  0  0  0  0
 18 50  1  0  0  0  0
 18 51  1  0  0  0  0
 19 21  1  0  0  0  0
 19 52  1  0  0  0  0
 19 53  1  0  0  0  0
 20 22  1  0  0  0  0
 20 54  1  0  0  0  0
 20 55  1  0  0  0  0
 21 23  1  0  0  0  0
 21 56  1  0  0  0  0
 21 57  1  0  0  0  0
 22 24  1  0  0  0  0
 22 58  1  0  0  0  0
 22 59  1  0  0  0  0
 23 25  1  0  0  0  0
 23 60  1  0  0  0  0
 23 61  1  0  0  0  0
 24 62  1  0  0  0  0
 24 63  1  0  0  0  0
 24 64  1  0  0  0  0
 26 27  1  0  0  0  0
 26 65  1  0  0  0  0
 26 66  1  0  0  0  0
 27 28  1  0  0  0  0
 27 67  1  0  0  0  0
 28 68  1  0  0  0  0
 28 69  1  0  0  0  0
M  END
> <PUBCHEM_COMPOUND_CID>
44147726

> <PUBCHEM_COMPOUND_CANONICALIZED>
1

> <PUBCHEM_CACTVS_COMPLEXITY>
289

> <PUBCHEM_CACTVS_HBOND_ACCEPTOR>
7

> <PUBCHEM_CACTVS_HBOND_DONOR>
5

> <PUBCHEM_CACTVS_ROTATABLE_BOND>
20

> <PUBCHEM_CACTVS_SUBSKEYS>
AAADcfJ4OAAAAAAAAAAAAAAAAAAAAAAAAAAAAAAAAAAAAAAAAAAIGgAACAAACBSggAICCAAABgAIAACQCAAAAAAAAAAAAAEAAAABEBIAAAACQAAFAAADAAGIyKCAAAAAAAAAAAAAAAAAAAAAAAAAAAAAAA==

> <PUBCHEM_IUPAC_OPENEYE_NAME>
boric acid;2,3-dihydroxypropyl octadecanoate

> <PUBCHEM_IUPAC_CAS_NAME>
boric acid;octadecanoic acid 2,3-dihydroxypropyl ester

> <PUBCHEM_IUPAC_NAME_MARKUP>
boric acid;2,3-dihydroxypropyl octadecanoate

> <PUBCHEM_IUPAC_NAME>
boric acid;2,3-dihydroxypropyl octadecanoate

> <PUBCHEM_IUPAC_SYSTEMATIC_NAME>
2,3-bis(oxidanyl)propyl octadecanoate;boric acid

> <PUBCHEM_IUPAC_TRADITIONAL_NAME>
boric acid;stearic acid glyceryl ester

> <PUBCHEM_IUPAC_INCHI>
InChI=1S/C21H42O4.BH3O3/c1-2-3-4-5-6-7-8-9-10-11-12-13-14-15-16-17-21(24)25-19-20(23)18-22;2-1(3)4/h20,22-23H,2-19H2,1H3;2-4H

> <PUBCHEM_IUPAC_INCHIKEY>
PKBOBUBZYJAAGY-UHFFFAOYSA-N

> <PUBCHEM_EXACT_MASS>
420.325834

> <PUBCHEM_MOLECULAR_FORMULA>
C21H45BO7

> <PUBCHEM_MOLECULAR_WEIGHT>
420.4

> <PUBCHEM_OPENEYE_CAN_SMILES>
B(O)(O)O.CCCCCCCCCCCCCCCCCC(=O)OCC(CO)O

> <PUBCHEM_OPENEYE_ISO_SMILES>
B(O)(O)O.CCCCCCCCCCCCCCCCCC(=O)OCC(CO)O

> <PUBCHEM_CACTVS_TPSA>
127

> <PUBCHEM_MONOISOTOPIC_WEIGHT>
420.325834

> <PUBCHEM_TOTAL_CHARGE>
0

> <PUBCHEM_HEAVY_ATOM_COUNT>
29

> <PUBCHEM_ATOM_DEF_STEREO_COUNT>
0

> <PUBCHEM_ATOM_UDEF_STEREO_COUNT>
1

> <PUBCHEM_BOND_DEF_STEREO_COUNT>
0

> <PUBCHEM_BOND_UDEF_STEREO_COUNT>
0

> <PUBCHEM_ISOTOPIC_ATOM_COUNT>
0

> <PUBCHEM_COMPONENT_COUNT>
2

> <PUBCHEM_CACTVS_TAUTO_COUNT>
-1

> <PUBCHEM_COORDINATE_TYPE>
1
5
255

> <PUBCHEM_BONDANNOTATIONS>
27  3  3

$$$$
