91746504
  -OEChem-09182003203D

 47 49  0     1  0  0  0  0  0999 V2000
    2.8451   -0.2593   -0.6031 O   0  0  0  0  0  0  0  0  0  0  0  0
    3.3802    0.8488    1.3521 O   0  0  0  0  0  0  0  0  0  0  0  0
   -1.7281   -1.1860   -0.2052 C   0  0  2  0  0  0  0  0  0  0  0  0
   -1.5010    0.1316   -0.9836 C   0  0  2  0  0  0  0  0  0  0  0  0
   -0.5774   -1.2275    0.8614 C   0  0  1  0  0  0  0  0  0  0  0  0
   -0.0293   -0.2209   -1.2857 C   0  0  1  0  0  0  0  0  0  0  0  0
    0.5759   -0.4698    0.1137 C   0  0  2  0  0  0  0  0  0  0  0  0
   -1.8900    1.4980   -0.3569 C   0  0  0  0  0  0  0  0  0  0  0  0
   -1.4338   -2.1866   -1.3497 C   0  0  0  0  0  0  0  0  0  0  0  0
   -0.2181   -1.5554   -2.0480 C   0  0  0  0  0  0  0  0  0  0  0  0
   -0.9612   -0.5056    2.1799 C   0  0  0  0  0  0  0  0  0  0  0  0
   -1.5102    1.7629    1.1168 C   0  0  0  0  0  0  0  0  0  0  0  0
   -0.1952   -2.6657    1.2785 C   0  0  0  0  0  0  0  0  0  0  0  0
   -1.9115    0.6825    2.1063 C   0  0  0  0  0  0  0  0  0  0  0  0
    1.9616   -1.1103    0.1035 C   0  0  0  0  0  0  0  0  0  0  0  0
   -3.4319    1.6385   -0.4905 C   0  0  0  0  0  0  0  0  0  0  0  0
   -1.2655    2.6316   -1.2041 C   0  0  0  0  0  0  0  0  0  0  0  0
    3.4975    0.6850    0.1452 C   0  0  0  0  0  0  0  0  0  0  0  0
    4.3929    1.5082   -0.7304 C   0  0  0  0  0  0  0  0  0  0  0  0
   -2.7301   -1.3250    0.2070 H   0  0  0  0  0  0  0  0  0  0  0  0
   -2.0555    0.0942   -1.9362 H   0  0  0  0  0  0  0  0  0  0  0  0
    0.5172    0.5177   -1.8764 H   0  0  0  0  0  0  0  0  0  0  0  0
    0.7227    0.5133    0.5655 H   0  0  0  0  0  0  0  0  0  0  0  0
   -2.2818   -2.2256   -2.0455 H   0  0  0  0  0  0  0  0  0  0  0  0
   -1.2540   -3.2129   -1.0239 H   0  0  0  0  0  0  0  0  0  0  0  0
    0.6558   -2.2089   -2.0320 H   0  0  0  0  0  0  0  0  0  0  0  0
   -0.4575   -1.3626   -3.1007 H   0  0  0  0  0  0  0  0  0  0  0  0
   -0.0414   -0.1939    2.6940 H   0  0  0  0  0  0  0  0  0  0  0  0
   -1.4387   -1.2253    2.8597 H   0  0  0  0  0  0  0  0  0  0  0  0
   -2.0124    2.6892    1.4327 H   0  0  0  0  0  0  0  0  0  0  0  0
   -0.4462    1.9965    1.2250 H   0  0  0  0  0  0  0  0  0  0  0  0
    0.2609   -3.2444    0.4712 H   0  0  0  0  0  0  0  0  0  0  0  0
   -1.0798   -3.2172    1.6177 H   0  0  0  0  0  0  0  0  0  0  0  0
    0.5247   -2.6577    2.1055 H   0  0  0  0  0  0  0  0  0  0  0  0
   -2.9323    0.3343    1.9198 H   0  0  0  0  0  0  0  0  0  0  0  0
   -1.9420    1.1338    3.1070 H   0  0  0  0  0  0  0  0  0  0  0  0
    1.9801   -2.0803   -0.3980 H   0  0  0  0  0  0  0  0  0  0  0  0
    2.3164   -1.2914    1.1254 H   0  0  0  0  0  0  0  0  0  0  0  0
   -3.9630    0.8276    0.0171 H   0  0  0  0  0  0  0  0  0  0  0  0
   -3.7854    2.5862   -0.0682 H   0  0  0  0  0  0  0  0  0  0  0  0
   -1.6323    3.6139   -0.8840 H   0  0  0  0  0  0  0  0  0  0  0  0
   -0.1742    2.6451   -1.1114 H   0  0  0  0  0  0  0  0  0  0  0  0
   -1.5112    2.5179   -2.2661 H   0  0  0  0  0  0  0  0  0  0  0  0
   -3.7419    1.6205   -1.5422 H   0  0  0  0  0  0  0  0  0  0  0  0
    5.1430    0.8670   -1.1997 H   0  0  0  0  0  0  0  0  0  0  0  0
    4.9061    2.2582   -0.1218 H   0  0  0  0  0  0  0  0  0  0  0  0
    3.7968    2.0227   -1.4883 H   0  0  0  0  0  0  0  0  0  0  0  0
  1 15  1  0  0  0  0
  1 18  1  0  0  0  0
  2 18  2  0  0  0  0
  3  4  1  0  0  0  0
  3  5  1  0  0  0  0
  3  9  1  0  0  0  0
  3 20  1  0  0  0  0
  4  6  1  0  0  0  0
  4  8  1  0  0  0  0
  4 21  1  0  0  0  0
  5  7  1  0  0  0  0
  5 11  1  0  0  0  0
  5 13  1  0  0  0  0
  6  7  1  0  0  0  0
  6 10  1  0  0  0  0
  6 22  1  0  0  0  0
  7 15  1  0  0  0  0
  7 23  1  0  0  0  0
  8 12  1  0  0  0  0
  8 16  1  0  0  0  0
  8 17  1  0  0  0  0
  9 10  1  0  0  0  0
  9 24  1  0  0  0  0
  9 25  1  0  0  0  0
 10 26  1  0  0  0  0
 10 27  1  0  0  0  0
 11 14  1  0  0  0  0
 11 28  1  0  0  0  0
 11 29  1  0  0  0  0
 12 14  1  0  0  0  0
 12 30  1  0  0  0  0
 12 31  1  0  0  0  0
 13 32  1  0  0  0  0
 13 33  1  0  0  0  0
 13 34  1  0  0  0  0
 14 35  1  0  0  0  0
 14 36  1  0  0  0  0
 15 37  1  0  0  0  0
 15 38  1  0  0  0  0
 16 39  1  0  0  0  0
 16 40  1  0  0  0  0
 16 44  1  0  0  0  0
 17 41  1  0  0  0  0
 17 42  1  0  0  0  0
 17 43  1  0  0  0  0
 18 19  1  0  0  0  0
 19 45  1  0  0  0  0
 19 46  1  0  0  0  0
 19 47  1  0  0  0  0
M  END
> <PUBCHEM_COMPOUND_CID>
91746504

> <PUBCHEM_CONFORMER_RMSD>
0.6

> <PUBCHEM_CONFORMER_DIVERSEORDER>
1
31
8
36
37
19
27
40
38
18
17
39
7
26
42
28
13
9
33
16
15
29
20
35
5
4
12
25
6
3
41
23
22
10
30
2
34
11
14
24
21
32

> <PUBCHEM_MMFF94_PARTIAL_CHARGES>
5
1 -0.43
15 0.28
18 0.66
19 0.06
2 -0.57

> <PUBCHEM_EFFECTIVE_ROTOR_COUNT>
4.4

> <PUBCHEM_PHARMACOPHORE_FEATURES>
4
1 2 acceptor
3 8 16 17 hydrophobe
7 3 4 5 6 7 9 10 rings
7 3 4 5 8 11 12 14 rings

> <PUBCHEM_HEAVY_ATOM_COUNT>
19

> <PUBCHEM_ATOM_DEF_STEREO_COUNT>
2

> <PUBCHEM_ATOM_UDEF_STEREO_COUNT>
3

> <PUBCHEM_BOND_DEF_STEREO_COUNT>
0

> <PUBCHEM_BOND_UDEF_STEREO_COUNT>
0

> <PUBCHEM_ISOTOPIC_ATOM_COUNT>
0

> <PUBCHEM_COMPONENT_COUNT>
1

> <PUBCHEM_CACTVS_TAUTO_COUNT>
1

> <PUBCHEM_CONFORMER_ID>
0577F0C800000001

> <PUBCHEM_MMFF94_ENERGY>
88.3983

> <PUBCHEM_FEATURE_SELFOVERLAP>
20.549

> <PUBCHEM_SHAPE_FINGERPRINT>
10863032 1 18339072688616394091
10948715 1 18264768762184334749
11221954 11 17831306003759424660
11315181 36 17532075276671693048
11680611 10 14276318979906147729
12423570 1 18201169861618149431
12491281 212 17988368078753885288
13024252 1 17531523295088715151
13027679 85 17538010546730876959
13764800 53 17967823751354954096
13994607 96 18041856098267507156
14142880 1 18272377519808150952
14787075 74 17967531315853702221
14817 1 17461478838242925411
15775835 57 18339920416054811796
15848702 105 18270662213207436093
16945 1 18128797798385025039
17492 54 18339343220048506029
18981168 100 18188512215007638132
21296965 12 18339647724191035589
21330990 113 17416981684435142263
21524375 3 18268143158842825500
21864079 5 18115595984288890076
2306618 200 17988360472561865946
23419403 2 17479227073408219771
23557571 272 17273112812859760418
23559900 14 17024892354392716175
3286 77 16954217877395085251
4340502 62 16588861262398018365
5845 1 17270623578189530447
81228 2 18267030624805908978

> <PUBCHEM_SHAPE_MULTIPOLES>
379.27
5
2.65
1.99
6.85
0.09
-0.45
-3.7
0.06
-1.03
0.39
-0.79
0.42
-0.08

> <PUBCHEM_SHAPE_SELFOVERLAP>
796.744

> <PUBCHEM_SHAPE_VOLUME>
216.8

> <PUBCHEM_COORDINATE_TYPE>
2
5
10

$$$$
