12795736
  -OEChem-08252012543D

 78 81  0     1  0  0  0  0  0999 V2000
    8.1350   -0.8757    0.9286 O   0  0  0  0  0  0  0  0  0  0  0  0
   -0.2979    0.8895   -0.4294 C   0  0  1  0  0  0  0  0  0  0  0  0
    0.2951   -0.5040   -0.7253 C   0  0  2  0  0  0  0  0  0  0  0  0
    2.4694    0.1087    0.4659 C   0  0  2  0  0  0  0  0  0  0  0  0
    4.0348    0.2786    0.3151 C   0  0  2  0  0  0  0  0  0  0  0  0
   -1.8065    0.5398   -0.4349 C   0  0  2  0  0  0  0  0  0  0  0  0
    1.8024   -0.4972   -0.7781 C   0  0  0  0  0  0  0  0  0  0  0  0
    0.2314    1.3441    0.9409 C   0  0  0  0  0  0  0  0  0  0  0  0
    1.7668    1.4086    0.9554 C   0  0  0  0  0  0  0  0  0  0  0  0
   -0.5565   -1.0069   -1.8952 C   0  0  0  0  0  0  0  0  0  0  0  0
    4.5861   -1.0207   -0.3491 C   0  0  1  0  0  0  0  0  0  0  0  0
   -1.9593   -0.4364   -1.6219 C   0  0  0  0  0  0  0  0  0  0  0  0
    4.6870    0.4343    1.7165 C   0  0  0  0  0  0  0  0  0  0  0  0
   -2.7732    1.7136   -0.5052 C   0  0  1  0  0  0  0  0  0  0  0  0
    0.0461    1.9410   -1.5136 C   0  0  0  0  0  0  0  0  0  0  0  0
    3.9993   -1.2218   -1.7544 C   0  0  0  0  0  0  0  0  0  0  0  0
    2.5089   -1.0594   -1.7746 C   0  0  0  0  0  0  0  0  0  0  0  0
    6.1188   -1.0926   -0.3777 C   0  0  0  0  0  0  0  0  0  0  0  0
    4.3838    1.5282   -0.5377 C   0  0  0  0  0  0  0  0  0  0  0  0
    6.2136    0.3685    1.6842 C   0  0  0  0  0  0  0  0  0  0  0  0
    6.7143   -0.9077    1.0165 C   0  0  2  0  0  0  0  0  0  0  0  0
   -4.2291    1.2013   -0.5410 C   0  0  0  0  0  0  0  0  0  0  0  0
   -2.5272    2.6666    0.6691 C   0  0  0  0  0  0  0  0  0  0  0  0
   -4.5949    0.3089    0.6537 C   0  0  0  0  0  0  0  0  0  0  0  0
   -6.0074   -0.2387    0.5690 C   0  0  0  0  0  0  0  0  0  0  0  0
   -6.2651   -1.6447    1.1093 C   0  0  0  0  0  0  0  0  0  0  0  0
   -7.0235    0.4460    0.0025 C   0  0  0  0  0  0  0  0  0  0  0  0
   -6.0946   -2.7079    0.0200 C   0  0  0  0  0  0  0  0  0  0  0  0
   -5.4091   -1.9806    2.3321 C   0  0  0  0  0  0  0  0  0  0  0  0
   -8.4487    0.0165   -0.1406 C   0  0  0  0  0  0  0  0  0  0  0  0
    0.0520   -1.1698    0.1204 H   0  0  0  0  0  0  0  0  0  0  0  0
    2.3006   -0.6383    1.2576 H   0  0  0  0  0  0  0  0  0  0  0  0
   -1.9839   -0.0286    0.4874 H   0  0  0  0  0  0  0  0  0  0  0  0
   -0.0989    0.6530    1.7270 H   0  0  0  0  0  0  0  0  0  0  0  0
   -0.1151    2.3356    1.2295 H   0  0  0  0  0  0  0  0  0  0  0  0
    2.0686    2.2668    0.3474 H   0  0  0  0  0  0  0  0  0  0  0  0
    2.0904    1.6330    1.9787 H   0  0  0  0  0  0  0  0  0  0  0  0
   -0.5729   -2.1007   -1.9463 H   0  0  0  0  0  0  0  0  0  0  0  0
   -0.1886   -0.6364   -2.8588 H   0  0  0  0  0  0  0  0  0  0  0  0
    4.2507   -1.8706    0.2667 H   0  0  0  0  0  0  0  0  0  0  0  0
   -2.3299    0.0607   -2.5257 H   0  0  0  0  0  0  0  0  0  0  0  0
   -2.6617   -1.2406   -1.3768 H   0  0  0  0  0  0  0  0  0  0  0  0
    4.3228   -0.3609    2.3803 H   0  0  0  0  0  0  0  0  0  0  0  0
    4.3878    1.3826    2.1782 H   0  0  0  0  0  0  0  0  0  0  0  0
   -2.6237    2.2812   -1.4322 H   0  0  0  0  0  0  0  0  0  0  0  0
    1.1209    1.9918   -1.7140 H   0  0  0  0  0  0  0  0  0  0  0  0
   -0.4373    1.7235   -2.4716 H   0  0  0  0  0  0  0  0  0  0  0  0
   -0.2661    2.9461   -1.2147 H   0  0  0  0  0  0  0  0  0  0  0  0
    4.2435   -2.2349   -2.0973 H   0  0  0  0  0  0  0  0  0  0  0  0
    4.4455   -0.5296   -2.4777 H   0  0  0  0  0  0  0  0  0  0  0  0
    2.0016   -1.4869   -2.6341 H   0  0  0  0  0  0  0  0  0  0  0  0
    6.4409   -2.0639   -0.7755 H   0  0  0  0  0  0  0  0  0  0  0  0
    6.5387   -0.3521   -1.0692 H   0  0  0  0  0  0  0  0  0  0  0  0
    3.7831    1.5847   -1.4509 H   0  0  0  0  0  0  0  0  0  0  0  0
    4.2142    2.4541    0.0228 H   0  0  0  0  0  0  0  0  0  0  0  0
    5.4341    1.5453   -0.8417 H   0  0  0  0  0  0  0  0  0  0  0  0
    6.6246    1.2484    1.1741 H   0  0  0  0  0  0  0  0  0  0  0  0
    6.6067    0.4213    2.7072 H   0  0  0  0  0  0  0  0  0  0  0  0
    6.4500   -1.7699    1.6400 H   0  0  0  0  0  0  0  0  0  0  0  0
   -4.8733    2.0881   -0.5671 H   0  0  0  0  0  0  0  0  0  0  0  0
   -4.4132    0.6631   -1.4792 H   0  0  0  0  0  0  0  0  0  0  0  0
   -1.6958    3.3465    0.4733 H   0  0  0  0  0  0  0  0  0  0  0  0
   -3.3981    3.3182    0.8104 H   0  0  0  0  0  0  0  0  0  0  0  0
   -2.3722    2.1388    1.6150 H   0  0  0  0  0  0  0  0  0  0  0  0
   -4.4704    0.8394    1.6036 H   0  0  0  0  0  0  0  0  0  0  0  0
   -3.9215   -0.5493    0.6579 H   0  0  0  0  0  0  0  0  0  0  0  0
    8.3840   -0.1137    0.3782 H   0  0  0  0  0  0  0  0  0  0  0  0
   -7.2974   -1.7057    1.4747 H   0  0  0  0  0  0  0  0  0  0  0  0
   -6.8512    1.4521   -0.3681 H   0  0  0  0  0  0  0  0  0  0  0  0
   -5.0647   -2.7319   -0.3534 H   0  0  0  0  0  0  0  0  0  0  0  0
   -6.7552   -2.5184   -0.8326 H   0  0  0  0  0  0  0  0  0  0  0  0
   -6.3333   -3.7030    0.4106 H   0  0  0  0  0  0  0  0  0  0  0  0
   -4.3562   -2.1389    2.0775 H   0  0  0  0  0  0  0  0  0  0  0  0
   -5.7652   -2.9069    2.7977 H   0  0  0  0  0  0  0  0  0  0  0  0
   -5.4682   -1.1905    3.0887 H   0  0  0  0  0  0  0  0  0  0  0  0
   -8.6136   -1.0554   -0.0192 H   0  0  0  0  0  0  0  0  0  0  0  0
   -9.0733    0.5519    0.5809 H   0  0  0  0  0  0  0  0  0  0  0  0
   -8.8007    0.2742   -1.1455 H   0  0  0  0  0  0  0  0  0  0  0  0
  1 21  1  0  0  0  0
  1 67  1  0  0  0  0
  2  3  1  0  0  0  0
  2  6  1  0  0  0  0
  2  8  1  0  0  0  0
  2 15  1  0  0  0  0
  3  7  1  0  0  0  0
  3 10  1  0  0  0  0
  3 31  1  0  0  0  0
  4  5  1  0  0  0  0
  4  7  1  0  0  0  0
  4  9  1  0  0  0  0
  4 32  1  0  0  0  0
  5 11  1  0  0  0  0
  5 13  1  0  0  0  0
  5 19  1  0  0  0  0
  6 12  1  0  0  0  0
  6 14  1  0  0  0  0
  6 33  1  0  0  0  0
  7 17  2  0  0  0  0
  8  9  1  0  0  0  0
  8 34  1  0  0  0  0
  8 35  1  0  0  0  0
  9 36  1  0  0  0  0
  9 37  1  0  0  0  0
 10 12  1  0  0  0  0
 10 38  1  0  0  0  0
 10 39  1  0  0  0  0
 11 16  1  0  0  0  0
 11 18  1  0  0  0  0
 11 40  1  0  0  0  0
 12 41  1  0  0  0  0
 12 42  1  0  0  0  0
 13 20  1  0  0  0  0
 13 43  1  0  0  0  0
 13 44  1  0  0  0  0
 14 22  1  0  0  0  0
 14 23  1  0  0  0  0
 14 45  1  0  0  0  0
 15 46  1  0  0  0  0
 15 47  1  0  0  0  0
 15 48  1  0  0  0  0
 16 17  1  0  0  0  0
 16 49  1  0  0  0  0
 16 50  1  0  0  0  0
 17 51  1  0  0  0  0
 18 21  1  0  0  0  0
 18 52  1  0  0  0  0
 18 53  1  0  0  0  0
 19 54  1  0  0  0  0
 19 55  1  0  0  0  0
 19 56  1  0  0  0  0
 20 21  1  0  0  0  0
 20 57  1  0  0  0  0
 20 58  1  0  0  0  0
 21 59  1  0  0  0  0
 22 24  1  0  0  0  0
 22 60  1  0  0  0  0
 22 61  1  0  0  0  0
 23 62  1  0  0  0  0
 23 63  1  0  0  0  0
 23 64  1  0  0  0  0
 24 25  1  0  0  0  0
 24 65  1  0  0  0  0
 24 66  1  0  0  0  0
 25 26  1  0  0  0  0
 25 27  2  0  0  0  0
 26 28  1  0  0  0  0
 26 29  1  0  0  0  0
 26 68  1  0  0  0  0
 27 30  1  0  0  0  0
 27 69  1  0  0  0  0
 28 70  1  0  0  0  0
 28 71  1  0  0  0  0
 28 72  1  0  0  0  0
 29 73  1  0  0  0  0
 29 74  1  0  0  0  0
 29 75  1  0  0  0  0
 30 76  1  0  0  0  0
 30 77  1  0  0  0  0
 30 78  1  0  0  0  0
M  END
> <PUBCHEM_COMPOUND_CID>
12795736

> <PUBCHEM_CONFORMER_RMSD>
0.8

> <PUBCHEM_CONFORMER_DIVERSEORDER>
6
10
12
3
1
13
9
5
7
11
4
2
8

> <PUBCHEM_MMFF94_PARTIAL_CHARGES>
15
1 -0.68
16 0.14
17 -0.29
21 0.28
24 0.14
25 -0.28
26 0.14
27 -0.29
3 0.14
30 0.14
4 0.14
51 0.15
67 0.4
69 0.15
7 -0.28

> <PUBCHEM_EFFECTIVE_ROTOR_COUNT>
7

> <PUBCHEM_PHARMACOPHORE_FEATURES>
10
1 1 acceptor
1 1 donor
1 23 hydrophobe
1 30 hydrophobe
3 26 28 29 hydrophobe
5 14 22 24 25 26 hydrophobe
5 2 3 6 10 12 rings
6 2 3 4 7 8 9 rings
6 4 5 7 11 16 17 rings
6 5 11 13 18 20 21 rings

> <PUBCHEM_HEAVY_ATOM_COUNT>
30

> <PUBCHEM_ATOM_DEF_STEREO_COUNT>
8

> <PUBCHEM_ATOM_UDEF_STEREO_COUNT>
0

> <PUBCHEM_BOND_DEF_STEREO_COUNT>
1

> <PUBCHEM_BOND_UDEF_STEREO_COUNT>
0

> <PUBCHEM_ISOTOPIC_ATOM_COUNT>
0

> <PUBCHEM_COMPONENT_COUNT>
1

> <PUBCHEM_CACTVS_TAUTO_COUNT>
1

> <PUBCHEM_CONFORMER_ID>
00C33F5800000006

> <PUBCHEM_MMFF94_ENERGY>
92.0658

> <PUBCHEM_FEATURE_SELFOVERLAP>
50.843

> <PUBCHEM_SHAPE_FINGERPRINT>
10 15 18201715171929636032
10369192 42 8790889580226541689
106641 1 17203887470891952127
10670039 82 10303821969297711115
10906281 52 15482390949793634124
11135609 12 18343301483514885878
11135926 11 17894905206038885859
11456790 92 16200145466417598002
11578080 2 15409459269591712810
11646440 116 17489868233057369184
11796584 16 17822015346059398403
11963148 33 18113611283489988114
12035758 1 17988924478792535326
12166972 35 16588025710443039612
12236239 1 16588027875148514060
12422481 6 18131074861459972943
13540713 4 17557994939365326429
13782708 43 18335140886221809354
13811026 1 18343301462266688385
14028597 1 15913333446462800234
14068700 675 17822013129645627805
14251764 18 15769768061645484189
14294032 229 16444740546831609725
14849402 71 16056586707605588113
14955137 171 18413110580216019109
15183329 4 11818988587428185709
15188451 53 17966968335471564887
16728433 281 9655312448402788994
18608769 82 18272086119330823958
19611394 137 18413388752151525912
20028762 73 16877941629409474770
20105231 36 17989210314248203118
21033648 29 17916855834236648553
21267235 1 17774726364328861012
21315759 40 17458345200466156792
21424621 283 12751242497411772709
21623969 137 17989490709942676247
21637258 2 17530679922362033367
21781051 124 18271255975778913870
21792934 111 18201434753641922273
22122407 14 15194996232169543482
22149856 69 17702965668336974193
22224240 67 17561361777798929503
23559900 14 16226622908693751477
23569914 152 12472238097712271003
23569943 247 17391907060472632090
23576562 1 10881988093345959954
3004659 81 12035452739606313652
3009799 131 11602540926816536205
3178227 256 17775281669192996728
3633792 109 14345798227756449636
392239 28 17632303414926855195
397830 11 18269832171896016321
4325135 7 15719392810884151282
4340502 62 17704070686007302574
5104073 3 17916590804145882202
59682541 35 18059850688091946585
5969126 39 15068614977091408135
6086070 43 16443335460205197892

> <PUBCHEM_SHAPE_MULTIPOLES>
611.52
20.96
2.13
1.78
9.25
0.1
-0.1
-8.71
-8.73
2.16
-0.13
-0.68
-0.5
1.67

> <PUBCHEM_SHAPE_SELFOVERLAP>
1267.647

> <PUBCHEM_SHAPE_VOLUME>
348.7

> <PUBCHEM_COORDINATE_TYPE>
2
5
10

$$$$
