5283638
  -OEChem-08252013243D

 78 81  0     1  0  0  0  0  0999 V2000
    8.1359   -0.4135    1.3623 O   0  0  0  0  0  0  0  0  0  0  0  0
   -0.2612    0.6747   -0.8139 C   0  0  1  0  0  0  0  0  0  0  0  0
    0.3678   -0.6954   -0.4914 C   0  0  2  0  0  0  0  0  0  0  0  0
    1.8865   -0.7265   -0.6905 C   0  0  1  0  0  0  0  0  0  0  0  0
    2.5502    0.3612    0.2035 C   0  0  1  0  0  0  0  0  0  0  0  0
   -1.7503    0.3269   -0.5714 C   0  0  2  0  0  0  0  0  0  0  0  0
    0.3289    1.6958    0.1686 C   0  0  0  0  0  0  0  0  0  0  0  0
    4.1187    0.3956    0.0047 C   0  0  2  0  0  0  0  0  0  0  0  0
   -0.4961   -1.6834   -1.2692 C   0  0  0  0  0  0  0  0  0  0  0  0
    1.8634    1.7486    0.0715 C   0  0  0  0  0  0  0  0  0  0  0  0
   -1.9085   -1.0722   -1.2119 C   0  0  0  0  0  0  0  0  0  0  0  0
    2.4522   -2.1122   -0.3450 C   0  0  0  0  0  0  0  0  0  0  0  0
   -2.7754    1.3303   -1.0798 C   0  0  1  0  0  0  0  0  0  0  0  0
   -0.0284    1.1481   -2.2702 C   0  0  0  0  0  0  0  0  0  0  0  0
    4.6979   -1.0260   -0.0140 C   0  0  0  0  0  0  0  0  0  0  0  0
    4.7439    1.1852    1.1934 C   0  0  0  0  0  0  0  0  0  0  0  0
    3.9352   -2.1239   -0.1566 C   0  0  0  0  0  0  0  0  0  0  0  0
    4.5023    1.0854   -1.3267 C   0  0  0  0  0  0  0  0  0  0  0  0
    6.1946   -1.1634    0.1446 C   0  0  0  0  0  0  0  0  0  0  0  0
    6.2650    1.0764    1.2910 C   0  0  0  0  0  0  0  0  0  0  0  0
   -4.2305    0.8639   -0.8560 C   0  0  0  0  0  0  0  0  0  0  0  0
    6.7123   -0.3799    1.3476 C   0  0  2  0  0  0  0  0  0  0  0  0
   -2.5242    2.7160   -0.4795 C   0  0  0  0  0  0  0  0  0  0  0  0
   -4.6373    0.6783    0.6134 C   0  0  0  0  0  0  0  0  0  0  0  0
   -6.1209    0.2688    0.7892 C   0  0  2  0  0  0  0  0  0  0  0  0
   -6.4359    0.1768    2.3001 C   0  0  0  0  0  0  0  0  0  0  0  0
   -6.4838   -1.0029    0.0305 C   0  0  0  0  0  0  0  0  0  0  0  0
   -7.9095   -0.0646    2.6028 C   0  0  0  0  0  0  0  0  0  0  0  0
   -5.7846   -2.2831    0.3974 C   0  0  0  0  0  0  0  0  0  0  0  0
   -7.4082   -0.9848   -0.9444 C   0  0  0  0  0  0  0  0  0  0  0  0
    0.1890   -0.9119    0.5757 H   0  0  0  0  0  0  0  0  0  0  0  0
    2.1186   -0.5279   -1.7428 H   0  0  0  0  0  0  0  0  0  0  0  0
    2.3673    0.0456    1.2437 H   0  0  0  0  0  0  0  0  0  0  0  0
   -1.8868    0.2062    0.5128 H   0  0  0  0  0  0  0  0  0  0  0  0
    0.0506    1.4382    1.1985 H   0  0  0  0  0  0  0  0  0  0  0  0
   -0.0273    2.7111   -0.0070 H   0  0  0  0  0  0  0  0  0  0  0  0
   -0.4769   -2.6834   -0.8241 H   0  0  0  0  0  0  0  0  0  0  0  0
   -0.1622   -1.7767   -2.3086 H   0  0  0  0  0  0  0  0  0  0  0  0
    2.2293    2.4172    0.8590 H   0  0  0  0  0  0  0  0  0  0  0  0
    2.1305    2.2204   -0.8786 H   0  0  0  0  0  0  0  0  0  0  0  0
   -2.5731   -1.6993   -0.6096 H   0  0  0  0  0  0  0  0  0  0  0  0
   -2.3258   -1.0239   -2.2240 H   0  0  0  0  0  0  0  0  0  0  0  0
    1.9936   -2.4992    0.5735 H   0  0  0  0  0  0  0  0  0  0  0  0
    2.1941   -2.8140   -1.1474 H   0  0  0  0  0  0  0  0  0  0  0  0
   -2.6747    1.4325   -2.1685 H   0  0  0  0  0  0  0  0  0  0  0  0
   -0.4176    2.1572   -2.4347 H   0  0  0  0  0  0  0  0  0  0  0  0
    1.0320    1.1839   -2.5347 H   0  0  0  0  0  0  0  0  0  0  0  0
   -0.5091    0.4927   -3.0034 H   0  0  0  0  0  0  0  0  0  0  0  0
    4.4808    2.2476    1.1264 H   0  0  0  0  0  0  0  0  0  0  0  0
    4.3199    0.8213    2.1393 H   0  0  0  0  0  0  0  0  0  0  0  0
    4.4013   -3.1062   -0.1408 H   0  0  0  0  0  0  0  0  0  0  0  0
    3.9952    0.6279   -2.1825 H   0  0  0  0  0  0  0  0  0  0  0  0
    5.5769    1.0294   -1.5305 H   0  0  0  0  0  0  0  0  0  0  0  0
    4.2512    2.1510   -1.3174 H   0  0  0  0  0  0  0  0  0  0  0  0
    6.6958   -0.8199   -0.7690 H   0  0  0  0  0  0  0  0  0  0  0  0
    6.4963   -2.2134    0.2526 H   0  0  0  0  0  0  0  0  0  0  0  0
    6.7443    1.5881    0.4473 H   0  0  0  0  0  0  0  0  0  0  0  0
    6.6148    1.6047    2.1867 H   0  0  0  0  0  0  0  0  0  0  0  0
   -4.3930   -0.0668   -1.4102 H   0  0  0  0  0  0  0  0  0  0  0  0
   -4.9044    1.6010   -1.3128 H   0  0  0  0  0  0  0  0  0  0  0  0
    6.3569   -0.8473    2.2742 H   0  0  0  0  0  0  0  0  0  0  0  0
   -3.4133    3.3468   -0.5998 H   0  0  0  0  0  0  0  0  0  0  0  0
   -1.7262    3.2487   -0.9997 H   0  0  0  0  0  0  0  0  0  0  0  0
   -2.3072    2.6719    0.5923 H   0  0  0  0  0  0  0  0  0  0  0  0
   -3.9971   -0.0723    1.0899 H   0  0  0  0  0  0  0  0  0  0  0  0
   -4.4693    1.6179    1.1537 H   0  0  0  0  0  0  0  0  0  0  0  0
   -6.7224    1.0990    0.3910 H   0  0  0  0  0  0  0  0  0  0  0  0
    8.4334    0.0762    2.1480 H   0  0  0  0  0  0  0  0  0  0  0  0
   -5.8365   -0.6099    2.7738 H   0  0  0  0  0  0  0  0  0  0  0  0
   -6.1440    1.1183    2.7828 H   0  0  0  0  0  0  0  0  0  0  0  0
   -8.5357    0.7053    2.1409 H   0  0  0  0  0  0  0  0  0  0  0  0
   -8.0796   -0.0351    3.6838 H   0  0  0  0  0  0  0  0  0  0  0  0
   -8.2399   -1.0431    2.2419 H   0  0  0  0  0  0  0  0  0  0  0  0
   -6.0041   -2.5609    1.4326 H   0  0  0  0  0  0  0  0  0  0  0  0
   -6.1010   -3.1183   -0.2370 H   0  0  0  0  0  0  0  0  0  0  0  0
   -4.7024   -2.1847    0.2855 H   0  0  0  0  0  0  0  0  0  0  0  0
   -7.9215   -0.0697   -1.2207 H   0  0  0  0  0  0  0  0  0  0  0  0
   -7.6737   -1.8845   -1.4895 H   0  0  0  0  0  0  0  0  0  0  0  0
  1 22  1  0  0  0  0
  1 68  1  0  0  0  0
  2  3  1  0  0  0  0
  2  6  1  0  0  0  0
  2  7  1  0  0  0  0
  2 14  1  0  0  0  0
  3  4  1  0  0  0  0
  3  9  1  0  0  0  0
  3 31  1  0  0  0  0
  4  5  1  0  0  0  0
  4 12  1  0  0  0  0
  4 32  1  0  0  0  0
  5  8  1  0  0  0  0
  5 10  1  0  0  0  0
  5 33  1  0  0  0  0
  6 11  1  0  0  0  0
  6 13  1  0  0  0  0
  6 34  1  0  0  0  0
  7 10  1  0  0  0  0
  7 35  1  0  0  0  0
  7 36  1  0  0  0  0
  8 15  1  0  0  0  0
  8 16  1  0  0  0  0
  8 18  1  0  0  0  0
  9 11  1  0  0  0  0
  9 37  1  0  0  0  0
  9 38  1  0  0  0  0
 10 39  1  0  0  0  0
 10 40  1  0  0  0  0
 11 41  1  0  0  0  0
 11 42  1  0  0  0  0
 12 17  1  0  0  0  0
 12 43  1  0  0  0  0
 12 44  1  0  0  0  0
 13 21  1  0  0  0  0
 13 23  1  0  0  0  0
 13 45  1  0  0  0  0
 14 46  1  0  0  0  0
 14 47  1  0  0  0  0
 14 48  1  0  0  0  0
 15 17  2  0  0  0  0
 15 19  1  0  0  0  0
 16 20  1  0  0  0  0
 16 49  1  0  0  0  0
 16 50  1  0  0  0  0
 17 51  1  0  0  0  0
 18 52  1  0  0  0  0
 18 53  1  0  0  0  0
 18 54  1  0  0  0  0
 19 22  1  0  0  0  0
 19 55  1  0  0  0  0
 19 56  1  0  0  0  0
 20 22  1  0  0  0  0
 20 57  1  0  0  0  0
 20 58  1  0  0  0  0
 21 24  1  0  0  0  0
 21 59  1  0  0  0  0
 21 60  1  0  0  0  0
 22 61  1  0  0  0  0
 23 62  1  0  0  0  0
 23 63  1  0  0  0  0
 23 64  1  0  0  0  0
 24 25  1  0  0  0  0
 24 65  1  0  0  0  0
 24 66  1  0  0  0  0
 25 26  1  0  0  0  0
 25 27  1  0  0  0  0
 25 67  1  0  0  0  0
 26 28  1  0  0  0  0
 26 69  1  0  0  0  0
 26 70  1  0  0  0  0
 27 29  1  0  0  0  0
 27 30  2  0  0  0  0
 28 71  1  0  0  0  0
 28 72  1  0  0  0  0
 28 73  1  0  0  0  0
 29 74  1  0  0  0  0
 29 75  1  0  0  0  0
 29 76  1  0  0  0  0
 30 77  1  0  0  0  0
 30 78  1  0  0  0  0
M  END
> <PUBCHEM_COMPOUND_CID>
5283638

> <PUBCHEM_CONFORMER_RMSD>
1

> <PUBCHEM_CONFORMER_DIVERSEORDER>
1
11
9
8
4
7
10
3
6
12
5
2

> <PUBCHEM_MMFF94_PARTIAL_CHARGES>
15
1 -0.68
12 0.14
15 -0.28
17 -0.29
19 0.14
22 0.28
25 0.14
27 -0.28
29 0.14
30 -0.3
51 0.15
68 0.4
77 0.15
78 0.15
8 0.14

> <PUBCHEM_EFFECTIVE_ROTOR_COUNT>
8

> <PUBCHEM_PHARMACOPHORE_FEATURES>
9
1 1 acceptor
1 1 donor
1 23 hydrophobe
1 28 hydrophobe
5 2 3 6 9 11 rings
6 13 21 24 25 26 27 hydrophobe
6 2 3 4 5 7 10 rings
6 4 5 8 12 15 17 rings
6 8 15 16 19 20 22 rings

> <PUBCHEM_HEAVY_ATOM_COUNT>
30

> <PUBCHEM_ATOM_DEF_STEREO_COUNT>
9

> <PUBCHEM_ATOM_UDEF_STEREO_COUNT>
0

> <PUBCHEM_BOND_DEF_STEREO_COUNT>
0

> <PUBCHEM_BOND_UDEF_STEREO_COUNT>
0

> <PUBCHEM_ISOTOPIC_ATOM_COUNT>
0

> <PUBCHEM_COMPONENT_COUNT>
1

> <PUBCHEM_CACTVS_TAUTO_COUNT>
1

> <PUBCHEM_CONFORMER_ID>
00509F3600000001

> <PUBCHEM_MMFF94_ENERGY>
85.5244

> <PUBCHEM_FEATURE_SELFOVERLAP>
45.767

> <PUBCHEM_SHAPE_FINGERPRINT>
10 15 18410285939544879248
10670039 82 10735886049969260955
10693767 8 12180108875056879752
10763959 59 10375860901270175666
11456790 92 17131824349374046610
11578080 2 16700027574138940354
11646440 116 18060697295409186640
12035758 1 18410856555350103546
12166972 35 14851609877507168982
12236239 1 16773506712157108516
12596602 18 17632300068752037059
13668630 136 14851605479244457667
13690498 29 8573842669079011017
13782708 43 17458343009421107466
13811026 1 18334007277581828757
14028597 1 17561085765340404034
14251764 18 17917706928707223852
14849402 71 17631727295876438681
14856354 85 15410601632503846797
15064981 113 14201935979628475259
15188451 53 16660368082223938865
15510800 12 17458639899505098483
16994733 274 15123789574295360811
18608769 82 18411131467896692050
20105231 36 18272933792274623126
2026 5 16153428359708578523
21130935 74 17917714582635072231
21267235 1 18341332202565909190
21424621 283 14908185235450508055
21521239 73 11963392959456490216
21623969 137 18411699868015789094
21756936 100 16272205289453153725
21781051 124 18114196220050403210
22122407 14 16917074399103113635
22149856 69 18341625771527181137
2215653 11 8070024480498909660
23522609 53 18196682728922376021
29717793 49 12035448316111855778
3004659 81 8430314636658241046
3009799 131 8790885194178689060
3178227 256 18412829088306976168
3383291 50 17603876619828070515
3663271 9 17775287153813895267
392239 28 18272940431876941297
4093350 32 16128377056763979030
4098825 35 8358253757640393949
4340502 62 18272370867288703806
465052 167 17603308158956476876
5104073 3 18268146452972095520
5385378 56 17703233923135822582
59682541 35 18408881871554081056
9689198 14 15985107413744759035
9953998 17 18344148086288777963

> <PUBCHEM_SHAPE_MULTIPOLES>
611.52
21.45
2.17
1.77
10.28
0.12
0.55
4.94
13.96
0.06
-0.41
1.89
-0.29
0.17

> <PUBCHEM_SHAPE_SELFOVERLAP>
1265.351

> <PUBCHEM_SHAPE_VOLUME>
349.6

> <PUBCHEM_COORDINATE_TYPE>
2
5
10

$$$$
