14034152
  -OEChem-09092015583D

 73 77  0     1  0  0  0  0  0999 V2000
   -0.4190    1.4868   -1.4563 O   0  0  0  0  0  0  0  0  0  0  0  0
   -3.0011    1.0518   -0.6742 O   0  0  0  0  0  0  0  0  0  0  0  0
   -5.1781    1.8361   -0.1481 O   0  0  0  0  0  0  0  0  0  0  0  0
   -1.0107    4.7552    0.1423 O   0  0  0  0  0  0  0  0  0  0  0  0
    1.5404    5.1068   -1.1304 O   0  0  0  0  0  0  0  0  0  0  0  0
    1.3109    0.8490    0.0340 O   0  0  0  0  0  0  0  0  0  0  0  0
    3.0607    2.6461   -1.2243 O   0  0  0  0  0  0  0  0  0  0  0  0
   -6.1682   -0.6488   -1.1991 O   0  0  0  0  0  0  0  0  0  0  0  0
   -5.3838   -2.1392    1.0163 O   0  0  0  0  0  0  0  0  0  0  0  0
   -5.3869   -0.0810    2.9936 O   0  0  0  0  0  0  0  0  0  0  0  0
    2.7239   -2.5642    0.2332 O   0  3  0  0  0  0  0  0  0  0  0  0
   -1.9655   -2.9672   -0.9705 O   0  0  0  0  0  0  0  0  0  0  0  0
    0.7493   -6.8542   -0.5790 O   0  0  0  0  0  0  0  0  0  0  0  0
    6.6286    1.1781   -0.8752 O   0  0  0  0  0  0  0  0  0  0  0  0
    7.0959    1.7612    1.8015 O   0  0  0  0  0  0  0  0  0  0  0  0
   -1.0515    2.4391   -0.5937 C   0  0  1  0  0  0  0  0  0  0  0  0
   -0.4751    3.8443   -0.8146 C   0  0  2  0  0  0  0  0  0  0  0  0
    1.0481    3.8463   -0.6698 C   0  0  1  0  0  0  0  0  0  0  0  0
    1.6688    2.7310   -1.5086 C   0  0  2  0  0  0  0  0  0  0  0  0
   -4.8401   -0.5125   -0.6913 C   0  0  1  0  0  0  0  0  0  0  0  0
   -4.3956    0.9291   -0.9321 C   0  0  2  0  0  0  0  0  0  0  0  0
   -4.8151   -0.8497    0.8005 C   0  0  1  0  0  0  0  0  0  0  0  0
   -5.5961    0.1868    1.6092 C   0  0  2  0  0  0  0  0  0  0  0  0
    0.9912    1.3846   -1.2487 C   0  0  2  0  0  0  0  0  0  0  0  0
   -2.5482    2.3811   -0.8874 C   0  0  0  0  0  0  0  0  0  0  0  0
   -5.1112    1.6012    1.2621 C   0  0  2  0  0  0  0  0  0  0  0  0
   -5.9593    2.6775    1.9340 C   0  0  0  0  0  0  0  0  0  0  0  0
    1.3309   -0.5266    0.0182 C   0  0  0  0  0  0  0  0  0  0  0  0
    2.5965   -1.2693    0.3167 C   0  0  0  0  0  0  0  0  0  0  0  0
    0.2637   -1.2672   -0.3072 C   0  0  0  0  0  0  0  0  0  0  0  0
    0.3574   -2.7212   -0.3733 C   0  0  0  0  0  0  0  0  0  0  0  0
    3.7821   -0.4696    0.7042 C   0  0  0  0  0  0  0  0  0  0  0  0
    1.5915   -3.3255   -0.1121 C   0  0  0  0  0  0  0  0  0  0  0  0
   -0.7449   -3.5145   -0.7051 C   0  0  0  0  0  0  0  0  0  0  0  0
    1.7232   -4.7129   -0.1812 C   0  0  0  0  0  0  0  0  0  0  0  0
    4.6569   -0.0158   -0.2765 C   0  0  0  0  0  0  0  0  0  0  0  0
    4.0098   -0.1823    2.0453 C   0  0  0  0  0  0  0  0  0  0  0  0
   -0.6107   -4.9024   -0.7725 C   0  0  0  0  0  0  0  0  0  0  0  0
    0.6218   -5.5007   -0.5116 C   0  0  0  0  0  0  0  0  0  0  0  0
    5.7740    0.7356    0.0888 C   0  0  0  0  0  0  0  0  0  0  0  0
    5.1267    0.5690    2.4106 C   0  0  0  0  0  0  0  0  0  0  0  0
    6.0088    1.0280    1.4324 C   0  0  0  0  0  0  0  0  0  0  0  0
   -0.9034    2.1213    0.4470 H   0  0  0  0  0  0  0  0  0  0  0  0
   -0.7490    4.2121   -1.8117 H   0  0  0  0  0  0  0  0  0  0  0  0
    1.3386    3.7608    0.3845 H   0  0  0  0  0  0  0  0  0  0  0  0
    1.5634    2.9861   -2.5712 H   0  0  0  0  0  0  0  0  0  0  0  0
   -4.2068   -1.2224   -1.2344 H   0  0  0  0  0  0  0  0  0  0  0  0
   -4.5789    1.1876   -1.9823 H   0  0  0  0  0  0  0  0  0  0  0  0
   -3.7789   -0.9004    1.1561 H   0  0  0  0  0  0  0  0  0  0  0  0
   -6.6701    0.0836    1.4143 H   0  0  0  0  0  0  0  0  0  0  0  0
    1.3783    0.7067   -2.0238 H   0  0  0  0  0  0  0  0  0  0  0  0
   -2.7333    2.6506   -1.9344 H   0  0  0  0  0  0  0  0  0  0  0  0
   -3.0786    3.0850   -0.2379 H   0  0  0  0  0  0  0  0  0  0  0  0
   -4.0778    1.7402    1.6047 H   0  0  0  0  0  0  0  0  0  0  0  0
   -5.6010    3.6742    1.6540 H   0  0  0  0  0  0  0  0  0  0  0  0
   -5.9288    2.5914    3.0242 H   0  0  0  0  0  0  0  0  0  0  0  0
   -7.0025    2.6146    1.6052 H   0  0  0  0  0  0  0  0  0  0  0  0
   -0.6138    5.6262   -0.0297 H   0  0  0  0  0  0  0  0  0  0  0  0
    2.4898    5.1446   -0.9256 H   0  0  0  0  0  0  0  0  0  0  0  0
    3.4767    3.4705   -1.5270 H   0  0  0  0  0  0  0  0  0  0  0  0
   -6.1358   -0.4788   -2.1560 H   0  0  0  0  0  0  0  0  0  0  0  0
   -6.2890   -2.1275    0.6609 H   0  0  0  0  0  0  0  0  0  0  0  0
   -4.4405    0.0371    3.1837 H   0  0  0  0  0  0  0  0  0  0  0  0
   -0.6935   -0.8104   -0.5267 H   0  0  0  0  0  0  0  0  0  0  0  0
    2.6857   -5.1726    0.0251 H   0  0  0  0  0  0  0  0  0  0  0  0
    4.4694   -0.2467   -1.3223 H   0  0  0  0  0  0  0  0  0  0  0  0
    3.3281   -0.5363    2.8139 H   0  0  0  0  0  0  0  0  0  0  0  0
   -1.4676   -5.5205   -1.0303 H   0  0  0  0  0  0  0  0  0  0  0  0
    5.3041    0.7933    3.4589 H   0  0  0  0  0  0  0  0  0  0  0  0
   -2.5981   -3.6765   -1.1763 H   0  0  0  0  0  0  0  0  0  0  0  0
   -0.1101   -7.2407   -0.8200 H   0  0  0  0  0  0  0  0  0  0  0  0
    6.3065    0.8827   -1.7441 H   0  0  0  0  0  0  0  0  0  0  0  0
    7.5943    1.9944    0.9990 H   0  0  0  0  0  0  0  0  0  0  0  0
  1 16  1  0  0  0  0
  1 24  1  0  0  0  0
  2 21  1  0  0  0  0
  2 25  1  0  0  0  0
  3 21  1  0  0  0  0
  3 26  1  0  0  0  0
  4 17  1  0  0  0  0
  4 58  1  0  0  0  0
  5 18  1  0  0  0  0
  5 59  1  0  0  0  0
  6 24  1  0  0  0  0
  6 28  1  0  0  0  0
  7 19  1  0  0  0  0
  7 60  1  0  0  0  0
  8 20  1  0  0  0  0
  8 61  1  0  0  0  0
  9 22  1  0  0  0  0
  9 62  1  0  0  0  0
 10 23  1  0  0  0  0
 10 63  1  0  0  0  0
 11 29  2  0  0  0  0
 11 33  1  0  0  0  0
 12 34  1  0  0  0  0
 12 70  1  0  0  0  0
 13 39  1  0  0  0  0
 13 71  1  0  0  0  0
 14 40  1  0  0  0  0
 14 72  1  0  0  0  0
 15 42  1  0  0  0  0
 15 73  1  0  0  0  0
 16 17  1  0  0  0  0
 16 25  1  0  0  0  0
 16 43  1  0  0  0  0
 17 18  1  0  0  0  0
 17 44  1  0  0  0  0
 18 19  1  0  0  0  0
 18 45  1  0  0  0  0
 19 24  1  0  0  0  0
 19 46  1  0  0  0  0
 20 21  1  0  0  0  0
 20 22  1  0  0  0  0
 20 47  1  0  0  0  0
 21 48  1  0  0  0  0
 22 23  1  0  0  0  0
 22 49  1  0  0  0  0
 23 26  1  0  0  0  0
 23 50  1  0  0  0  0
 24 51  1  0  0  0  0
 25 52  1  0  0  0  0
 25 53  1  0  0  0  0
 26 27  1  0  0  0  0
 26 54  1  0  0  0  0
 27 55  1  0  0  0  0
 27 56  1  0  0  0  0
 27 57  1  0  0  0  0
 28 29  1  0  0  0  0
 28 30  2  0  0  0  0
 29 32  1  0  0  0  0
 30 31  1  0  0  0  0
 30 64  1  0  0  0  0
 31 33  1  0  0  0  0
 31 34  2  0  0  0  0
 32 36  2  0  0  0  0
 32 37  1  0  0  0  0
 33 35  2  0  0  0  0
 34 38  1  0  0  0  0
 35 39  1  0  0  0  0
 35 65  1  0  0  0  0
 36 40  1  0  0  0  0
 36 66  1  0  0  0  0
 37 41  2  0  0  0  0
 37 67  1  0  0  0  0
 38 39  2  0  0  0  0
 38 68  1  0  0  0  0
 40 42  2  0  0  0  0
 41 42  1  0  0  0  0
 41 69  1  0  0  0  0
M  CHG  1  11   1
M  END
> <PUBCHEM_COMPOUND_CID>
14034152

> <PUBCHEM_CONFORMER_RMSD>
1.2

> <PUBCHEM_CONFORMER_DIVERSEORDER>
1
173
554
525
772
612
550
350
78
607
114
941
691
238
950
740
331
165
174
124
5
357
41
10
182
492
338
958
871
560
861
623
176
946
151
806
149
104
687
689
471
553
559
139
137
57
150
125
918
702
924
821
505
686
186
39
280
890
351
769
696
87
406
271
743
606
293
626
193
315
207
906
112
879
523
942
49
587
135
455
424
66
115
14
333
130
747
26
777
159
347
245
945
218
783
21
403
564
268
868
168
201
334
719
28
531
246
912
105
8
4
746
274
226
592
134
88
42
303
127
878
670
131
225
786
263
624
909
327
256
573
854
568
69
894
463
342
386
798
163
34
428
694
290
399
781
381
162
445
30
223
46
337
857
204
665
323
294
71
809
99
2
509
249
723
472
394
75
808
636
250
154
731
64
296
3
148
576
860
494
284
820
52
591
438
630
76
943
211
147
302
785
47
90
397
50
757
580
663
155
408
205
257
707
517
655
37
19
295
322
6
690
466
944
100
17
264
33
343
829
110
578
676
752
95
478
22
773
292
101
318
544
631
83
748
97
570
812
446
183
45
67
611
68
830
142
519
172
175
514
498
584
642
546
367
20
18
319
220
336
237
247
431
393
258
23
647
188
516
512
651
9
200
875
538
464
638
396
11
36
673
111
31
161
843
374
389
54
190
103
922
415
313
228
480
38
713
221
79
89
457
555
12
181
926
317
341
58
251
244
898
380
27
767
617
116
614
138
543
849
385
939
901
59
955

> <PUBCHEM_MMFF94_PARTIAL_CHARGES>
57
1 -0.56
10 -0.68
11 -0.87
12 -0.53
13 -0.53
14 -0.53
15 -0.53
16 0.28
17 0.28
18 0.28
19 0.28
2 -0.56
20 0.28
21 0.56
22 0.28
23 0.28
24 0.56
25 0.28
26 0.28
28 0.09
29 0.85
3 -0.56
30 -0.18
31 0.03
32 0.09
33 0.92
34 0.08
35 -0.15
36 -0.15
37 -0.15
38 -0.15
39 0.08
4 -0.68
40 0.08
41 -0.15
42 0.08
5 -0.68
58 0.4
59 0.4
6 -0.36
60 0.4
61 0.4
62 0.4
63 0.4
64 0.15
65 0.15
66 0.15
67 0.15
68 0.15
69 0.15
7 -0.68
70 0.45
71 0.45
72 0.45
73 0.45
8 -0.68
9 -0.68

> <PUBCHEM_EFFECTIVE_ROTOR_COUNT>
8.4

> <PUBCHEM_PHARMACOPHORE_FEATURES>
25
1 1 acceptor
1 10 acceptor
1 10 donor
1 12 donor
1 13 donor
1 14 donor
1 15 donor
1 2 acceptor
1 3 acceptor
1 4 acceptor
1 4 donor
1 5 acceptor
1 5 donor
1 6 acceptor
1 7 acceptor
1 7 donor
1 8 acceptor
1 8 donor
1 9 acceptor
1 9 donor
6 1 16 17 18 19 24 rings
6 11 28 29 30 31 33 rings
6 3 20 21 22 23 26 rings
6 31 33 34 35 38 39 rings
6 32 36 37 40 41 42 rings

> <PUBCHEM_HEAVY_ATOM_COUNT>
42

> <PUBCHEM_ATOM_DEF_STEREO_COUNT>
9

> <PUBCHEM_ATOM_UDEF_STEREO_COUNT>
1

> <PUBCHEM_BOND_DEF_STEREO_COUNT>
0

> <PUBCHEM_BOND_UDEF_STEREO_COUNT>
0

> <PUBCHEM_ISOTOPIC_ATOM_COUNT>
0

> <PUBCHEM_COMPONENT_COUNT>
1

> <PUBCHEM_CACTVS_TAUTO_COUNT>
154

> <PUBCHEM_CONFORMER_ID>
00D624E800000001

> <PUBCHEM_MMFF94_ENERGY>
131.9738

> <PUBCHEM_FEATURE_SELFOVERLAP>
127.04

> <PUBCHEM_SHAPE_FINGERPRINT>
10190108 129 18124333622241352312
10675989 125 16600659928218155933
1100329 8 18264763445025482660
11445158 3 17821727281811838716
12058002 1 17558863717255905020
12202916 173 18113606890455095699
12422481 6 18187359904819455778
140371 6 18190464853090868045
14068700 686 18266733593531641836
14790565 3 18337957895273290324
15297060 5 18343025501991004114
15351339 4 16249407272096419139
15444296 121 18189621725309379410
15927050 60 17831024890029511068
16112460 7 18194396916671186901
1979834 28 18337680698105274273
20028762 73 18342170106939231166
21033648 29 18201991162080110146
21796203 349 18117020925066438161
22223350 30 17982446306737767632
23559900 14 17257633540245764004
25019877 29 18131059451454847382
255183 313 18269250470659030930
3737641 26 18197221334530716815
4403749 210 18337092553636908676
4461854 278 18339374066456555619
5171179 24 17764302847441720651
613672 6 18115867413131126189
6371009 1 18267857462425466135

> <PUBCHEM_SHAPE_MULTIPOLES>
776.3
14.25
7.77
1.81
3.93
8.98
1.2
-7.69
9.01
-1.81
-3.31
0.48
-0.98
-0.27

> <PUBCHEM_SHAPE_SELFOVERLAP>
1685.813

> <PUBCHEM_SHAPE_VOLUME>
418.1

> <PUBCHEM_COORDINATE_TYPE>
2
5
10

$$$$
