9862769
  -OEChem-09092016373D

 45 46  0     0  0  0  0  0  0999 V2000
   -2.4734   -1.3571   -0.7853 O   0  0  0  0  0  0  0  0  0  0  0  0
   -4.0466    3.1243   -0.1890 O   0  0  0  0  0  0  0  0  0  0  0  0
   -0.1272   -1.8323    0.3905 O   0  0  0  0  0  0  0  0  0  0  0  0
    4.1208   -0.1072    2.2911 O   0  0  0  0  0  0  0  0  0  0  0  0
    7.9201    0.4839   -0.5178 O   0  0  0  0  0  0  0  0  0  0  0  0
   -3.2678    0.8766   -0.4915 C   0  0  0  0  0  0  0  0  0  0  0  0
   -4.6285    0.4616   -0.9930 C   0  0  0  0  0  0  0  0  0  0  0  0
   -2.2496   -0.0638   -0.4123 C   0  0  0  0  0  0  0  0  0  0  0  0
   -0.9920    0.3220    0.0517 C   0  0  0  0  0  0  0  0  0  0  0  0
   -3.0522    2.1956   -0.1156 C   0  0  0  0  0  0  0  0  0  0  0  0
   -5.5295   -0.0031    0.1164 C   0  0  0  0  0  0  0  0  0  0  0  0
   -0.7645    1.6447    0.4321 C   0  0  0  0  0  0  0  0  0  0  0  0
   -1.7946    2.5813    0.3485 C   0  0  0  0  0  0  0  0  0  0  0  0
   -6.0955   -1.2155    0.2696 C   0  0  0  0  0  0  0  0  0  0  0  0
    0.0989   -0.6385    0.1471 C   0  0  0  0  0  0  0  0  0  0  0  0
    1.5067   -0.1447   -0.0248 C   0  0  0  0  0  0  0  0  0  0  0  0
   -6.9908   -1.6175    1.4072 C   0  0  0  0  0  0  0  0  0  0  0  0
   -5.8623   -2.2992   -0.7493 C   0  0  0  0  0  0  0  0  0  0  0  0
    3.9570   -0.5982   -0.0552 C   0  0  0  0  0  0  0  0  0  0  0  0
    2.5430   -0.9894    0.0824 C   0  0  0  0  0  0  0  0  0  0  0  0
    4.6807   -0.1767    1.0496 C   0  0  0  0  0  0  0  0  0  0  0  0
    4.5385   -0.6638   -1.3127 C   0  0  0  0  0  0  0  0  0  0  0  0
    6.0178    0.1884    0.8937 C   0  0  0  0  0  0  0  0  0  0  0  0
    5.8755   -0.2987   -1.4684 C   0  0  0  0  0  0  0  0  0  0  0  0
    6.6154    0.1274   -0.3652 C   0  0  0  0  0  0  0  0  0  0  0  0
   -5.1205    1.2916   -1.5158 H   0  0  0  0  0  0  0  0  0  0  0  0
   -4.5042   -0.2686   -1.7963 H   0  0  0  0  0  0  0  0  0  0  0  0
   -5.7484    0.7444    0.8783 H   0  0  0  0  0  0  0  0  0  0  0  0
    0.1856    1.9824    0.8350 H   0  0  0  0  0  0  0  0  0  0  0  0
   -1.6138    3.6083    0.6544 H   0  0  0  0  0  0  0  0  0  0  0  0
    1.6840    0.8952   -0.2738 H   0  0  0  0  0  0  0  0  0  0  0  0
   -7.1469   -0.7909    2.1081 H   0  0  0  0  0  0  0  0  0  0  0  0
   -7.9712   -1.9263    1.0304 H   0  0  0  0  0  0  0  0  0  0  0  0
   -6.5506   -2.4502    1.9650 H   0  0  0  0  0  0  0  0  0  0  0  0
   -5.0408   -2.1292   -1.4436 H   0  0  0  0  0  0  0  0  0  0  0  0
   -5.6272   -3.2397   -0.2370 H   0  0  0  0  0  0  0  0  0  0  0  0
   -6.7734   -2.4573   -1.3362 H   0  0  0  0  0  0  0  0  0  0  0  0
    2.3910   -2.0414    0.3100 H   0  0  0  0  0  0  0  0  0  0  0  0
   -1.6499   -1.8695   -0.7722 H   0  0  0  0  0  0  0  0  0  0  0  0
   -4.9169    2.6999   -0.1388 H   0  0  0  0  0  0  0  0  0  0  0  0
    3.9741   -0.9946   -2.1807 H   0  0  0  0  0  0  0  0  0  0  0  0
    6.5895    0.5198    1.7572 H   0  0  0  0  0  0  0  0  0  0  0  0
    6.3356   -0.3483   -2.4515 H   0  0  0  0  0  0  0  0  0  0  0  0
    3.2028   -0.4210    2.2743 H   0  0  0  0  0  0  0  0  0  0  0  0
    8.2768    0.7520    0.3466 H   0  0  0  0  0  0  0  0  0  0  0  0
  1  8  1  0  0  0  0
  1 39  1  0  0  0  0
  2 10  1  0  0  0  0
  2 40  1  0  0  0  0
  3 15  2  0  0  0  0
  4 21  1  0  0  0  0
  4 44  1  0  0  0  0
  5 25  1  0  0  0  0
  5 45  1  0  0  0  0
  6  7  1  0  0  0  0
  6  8  1  0  0  0  0
  6 10  2  0  0  0  0
  7 11  1  0  0  0  0
  7 26  1  0  0  0  0
  7 27  1  0  0  0  0
  8  9  2  0  0  0  0
  9 12  1  0  0  0  0
  9 15  1  0  0  0  0
 10 13  1  0  0  0  0
 11 14  2  0  0  0  0
 11 28  1  0  0  0  0
 12 13  2  0  0  0  0
 12 29  1  0  0  0  0
 13 30  1  0  0  0  0
 14 17  1  0  0  0  0
 14 18  1  0  0  0  0
 15 16  1  0  0  0  0
 16 20  2  0  0  0  0
 16 31  1  0  0  0  0
 17 32  1  0  0  0  0
 17 33  1  0  0  0  0
 17 34  1  0  0  0  0
 18 35  1  0  0  0  0
 18 36  1  0  0  0  0
 18 37  1  0  0  0  0
 19 20  1  0  0  0  0
 19 21  2  0  0  0  0
 19 22  1  0  0  0  0
 20 38  1  0  0  0  0
 21 23  1  0  0  0  0
 22 24  2  0  0  0  0
 22 41  1  0  0  0  0
 23 25  2  0  0  0  0
 23 42  1  0  0  0  0
 24 25  1  0  0  0  0
 24 43  1  0  0  0  0
M  END
> <PUBCHEM_COMPOUND_CID>
9862769

> <PUBCHEM_CONFORMER_RMSD>
0.8

> <PUBCHEM_CONFORMER_DIVERSEORDER>
3
203
143
51
188
187
189
12
130
145
41
80
206
132
173
67
163
4
124
66
183
195
74
167
10
186
70
71
172
125
122
26
200
205
65
153
165
55
150
18
197
90
175
5
204
127
102
155
59
201
62
171
176
13
53
15
100
44
20
190
157
8
196
146
198
168
149
25
152
79
93
37
63
194
162
136
193
57
92
56
120
199
9
96
19
134
30
109
170
191
43
185
105
60
48
135
131
161
22
192
117
148
46
159
106
58
160
69
39
138
144
156
54
169
31
72
94
174
85
35
139
45
14
207
98
129
182
64
108
81
21
104
123
99
133
140
75
34
126
103
202
87
84
40
154
137
178
27
166
128
2
118
101
111
24
76
6
184
158
121
151
52
88
77
107
95
50
115
16
89
32
97
7
114
164
180
142
141
181
73
83
42
179
47
78
147
86
68
113
110
36
119
28
49
23
33
112
38
1
91
29
116
177
11
82
17
61

> <PUBCHEM_MMFF94_PARTIAL_CHARGES>
37
1 -0.53
10 0.08
11 -0.29
12 -0.15
13 -0.15
14 -0.28
15 0.47
16 -0.14
17 0.14
18 0.14
19 0.03
2 -0.53
20 -0.18
21 0.08
22 -0.15
23 -0.15
24 -0.15
25 0.08
28 0.15
29 0.15
3 -0.57
30 0.15
31 0.15
38 0.15
39 0.45
4 -0.53
40 0.45
41 0.15
42 0.15
43 0.15
44 0.45
45 0.45
5 -0.53
6 -0.14
7 0.28
8 0.08
9 0.09

> <PUBCHEM_EFFECTIVE_ROTOR_COUNT>
5

> <PUBCHEM_PHARMACOPHORE_FEATURES>
8
1 1 donor
1 2 donor
1 3 acceptor
1 4 donor
1 5 donor
3 14 17 18 hydrophobe
6 19 21 22 23 24 25 rings
6 6 8 9 10 12 13 rings

> <PUBCHEM_HEAVY_ATOM_COUNT>
25

> <PUBCHEM_ATOM_DEF_STEREO_COUNT>
0

> <PUBCHEM_ATOM_UDEF_STEREO_COUNT>
0

> <PUBCHEM_BOND_DEF_STEREO_COUNT>
1

> <PUBCHEM_BOND_UDEF_STEREO_COUNT>
0

> <PUBCHEM_ISOTOPIC_ATOM_COUNT>
0

> <PUBCHEM_COMPONENT_COUNT>
1

> <PUBCHEM_CACTVS_TAUTO_COUNT>
171

> <PUBCHEM_CONFORMER_ID>
00967E7100000003

> <PUBCHEM_MMFF94_ENERGY>
75.8908

> <PUBCHEM_FEATURE_SELFOVERLAP>
40.597

> <PUBCHEM_SHAPE_FINGERPRINT>
10299344 5 14908180858583506046
10577160 183 10663543621757440169
10591671 39 18335708238848823630
10670039 82 18263932047248169636
10674148 151 11312058738994834132
11089746 13 10881403157671026215
11315181 36 17676207979344204413
11724838 91 17167864188537435334
12166972 35 17748829647836777357
12236239 1 17821723901957100378
12390115 104 17987241032323227761
12403259 415 17775276158554939440
12596602 18 17748820787561403296
12616971 3 13614232690021492072
12730499 353 17703790306643241894
12916748 109 18411982447136594426
13073987 5 18337389340609379306
13422730 43 18334851736866196904
13533116 47 15068611648866039880
13631057 29 18040154041973476235
14251764 18 17385724708088397974
15142383 8 12463577257673842682
15183329 4 15841549648168225894
15419008 47 17989203754746426472
15461852 350 13912332295360782802
1577012 14 18040716914369448996
16087824 20 18338515224418339733
18335252 98 18410580586659220546
18608769 82 18343021124839613414
18927931 339 18342171177261456055
19377110 9 18040718026428167699
19427546 20 18262235526539736069
21150785 3 17603588551543231220
21267235 1 18412268349797358365
21315763 191 13398618464125682980
21792961 116 17845946161104217238
21796203 349 18046939175620516867
221357 26 17132112417035605912
2297311 6 18273498965918095509
2303208 19 17846782883949829070
23081809 10 17749388127092772040
23557571 272 18201444653155963292
23559900 14 18201148940874719872
23569917 315 17895197667220732930
2747138 104 18411704326492315443
335352 9 18411411810093813389
34797466 226 17917719024221632292
3545911 37 17988923366881159446
4015057 19 14562824273995833837
4258327 124 16588888891727481182
4325135 7 18260268555560113791
46194498 28 17846781819679303796
5104073 3 18198901405583635075
53794403 172 18265332996771632964
5486654 2 18408039611477662171
6328613 192 10375860900821990691
9862886 166 17313391162386151147

> <PUBCHEM_SHAPE_MULTIPOLES>
485.14
19.97
2.21
1.23
12.8
1.29
0.29
-5.73
-0.11
-4.7
-0.01
0.99
-0.25
0.62

> <PUBCHEM_SHAPE_SELFOVERLAP>
1037.171

> <PUBCHEM_SHAPE_VOLUME>
268.7

> <PUBCHEM_COORDINATE_TYPE>
2
5
10

$$$$
