10759602
  -OEChem-09092016363D

 49 51  0     1  0  0  0  0  0999 V2000
    0.0347   -0.3015    0.1961 O   0  0  0  0  0  0  0  0  0  0  0  0
    4.6663    0.5952    0.7210 O   0  0  0  0  0  0  0  0  0  0  0  0
   -3.2539   -1.1531   -2.1744 O   0  0  0  0  0  0  0  0  0  0  0  0
   -6.0497    0.7888    1.1612 O   0  0  0  0  0  0  0  0  0  0  0  0
   -0.9613   -1.1111   -0.4506 C   0  0  1  0  0  0  0  0  0  0  0  0
   -0.7910   -2.5937   -0.1086 C   0  0  0  0  0  0  0  0  0  0  0  0
    0.5605   -3.0711   -0.6251 C   0  0  0  0  0  0  0  0  0  0  0  0
    1.6367   -2.0872   -0.2661 C   0  0  0  0  0  0  0  0  0  0  0  0
    1.3188   -0.7748    0.1078 C   0  0  0  0  0  0  0  0  0  0  0  0
    2.3309    0.1253    0.4504 C   0  0  0  0  0  0  0  0  0  0  0  0
   -2.3267   -0.6071   -0.0325 C   0  0  0  0  0  0  0  0  0  0  0  0
    2.9826   -2.4710   -0.3299 C   0  0  0  0  0  0  0  0  0  0  0  0
    3.6663   -0.2710    0.3950 C   0  0  0  0  0  0  0  0  0  0  0  0
    1.9923    1.5213    0.8699 C   0  0  0  0  0  0  0  0  0  0  0  0
    3.9924   -1.5669    0.0012 C   0  0  0  0  0  0  0  0  0  0  0  0
   -3.4058   -0.6539   -0.9158 C   0  0  0  0  0  0  0  0  0  0  0  0
   -2.5001   -0.0912    1.2523 C   0  0  0  0  0  0  0  0  0  0  0  0
    1.9380    2.4822   -0.2901 C   0  0  0  0  0  0  0  0  0  0  0  0
   -4.6570   -0.1851   -0.5149 C   0  0  0  0  0  0  0  0  0  0  0  0
   -3.7511    0.3774    1.6533 C   0  0  0  0  0  0  0  0  0  0  0  0
   -4.8296    0.3305    0.7698 C   0  0  0  0  0  0  0  0  0  0  0  0
    0.9008    3.2428   -0.6898 C   0  0  0  0  0  0  0  0  0  0  0  0
    6.0024    0.1040    0.6356 C   0  0  0  0  0  0  0  0  0  0  0  0
    0.9154    4.1837   -1.8609 C   0  0  0  0  0  0  0  0  0  0  0  0
   -0.4120    3.1875    0.0455 C   0  0  0  0  0  0  0  0  0  0  0  0
   -0.8398   -0.9505   -1.5306 H   0  0  0  0  0  0  0  0  0  0  0  0
   -1.5918   -3.2039   -0.5420 H   0  0  0  0  0  0  0  0  0  0  0  0
   -0.8275   -2.7317    0.9806 H   0  0  0  0  0  0  0  0  0  0  0  0
    0.5276   -3.1719   -1.7166 H   0  0  0  0  0  0  0  0  0  0  0  0
    0.7831   -4.0565   -0.2000 H   0  0  0  0  0  0  0  0  0  0  0  0
    3.2499   -3.4804   -0.6333 H   0  0  0  0  0  0  0  0  0  0  0  0
    1.0818    1.5047    1.4734 H   0  0  0  0  0  0  0  0  0  0  0  0
    2.7491    1.8948    1.5726 H   0  0  0  0  0  0  0  0  0  0  0  0
    5.0063   -1.9454   -0.0700 H   0  0  0  0  0  0  0  0  0  0  0  0
   -1.6809   -0.0544    1.9650 H   0  0  0  0  0  0  0  0  0  0  0  0
    2.8654    2.5712   -0.8555 H   0  0  0  0  0  0  0  0  0  0  0  0
   -5.4983   -0.2207   -1.2028 H   0  0  0  0  0  0  0  0  0  0  0  0
   -3.8802    0.7757    2.6560 H   0  0  0  0  0  0  0  0  0  0  0  0
   -4.1061   -1.1054   -2.6405 H   0  0  0  0  0  0  0  0  0  0  0  0
    6.2693   -0.1647   -0.3923 H   0  0  0  0  0  0  0  0  0  0  0  0
    6.1779   -0.7153    1.3412 H   0  0  0  0  0  0  0  0  0  0  0  0
    6.6658    0.9237    0.9309 H   0  0  0  0  0  0  0  0  0  0  0  0
    1.8799    4.1665   -2.3788 H   0  0  0  0  0  0  0  0  0  0  0  0
    0.1426    3.9039   -2.5841 H   0  0  0  0  0  0  0  0  0  0  0  0
    0.7318    5.2108   -1.5298 H   0  0  0  0  0  0  0  0  0  0  0  0
   -0.3494    2.8270    1.0727 H   0  0  0  0  0  0  0  0  0  0  0  0
   -0.8413    4.1939    0.1149 H   0  0  0  0  0  0  0  0  0  0  0  0
   -1.1214    2.5598   -0.5036 H   0  0  0  0  0  0  0  0  0  0  0  0
   -6.6780    0.6810    0.4265 H   0  0  0  0  0  0  0  0  0  0  0  0
  1  5  1  0  0  0  0
  1  9  1  0  0  0  0
  2 13  1  0  0  0  0
  2 23  1  0  0  0  0
  3 16  1  0  0  0  0
  3 39  1  0  0  0  0
  4 21  1  0  0  0  0
  4 49  1  0  0  0  0
  5  6  1  0  0  0  0
  5 11  1  0  0  0  0
  5 26  1  0  0  0  0
  6  7  1  0  0  0  0
  6 27  1  0  0  0  0
  6 28  1  0  0  0  0
  7  8  1  0  0  0  0
  7 29  1  0  0  0  0
  7 30  1  0  0  0  0
  8  9  2  0  0  0  0
  8 12  1  0  0  0  0
  9 10  1  0  0  0  0
 10 13  2  0  0  0  0
 10 14  1  0  0  0  0
 11 16  2  0  0  0  0
 11 17  1  0  0  0  0
 12 15  2  0  0  0  0
 12 31  1  0  0  0  0
 13 15  1  0  0  0  0
 14 18  1  0  0  0  0
 14 32  1  0  0  0  0
 14 33  1  0  0  0  0
 15 34  1  0  0  0  0
 16 19  1  0  0  0  0
 17 20  2  0  0  0  0
 17 35  1  0  0  0  0
 18 22  2  0  0  0  0
 18 36  1  0  0  0  0
 19 21  2  0  0  0  0
 19 37  1  0  0  0  0
 20 21  1  0  0  0  0
 20 38  1  0  0  0  0
 22 24  1  0  0  0  0
 22 25  1  0  0  0  0
 23 40  1  0  0  0  0
 23 41  1  0  0  0  0
 23 42  1  0  0  0  0
 24 43  1  0  0  0  0
 24 44  1  0  0  0  0
 24 45  1  0  0  0  0
 25 46  1  0  0  0  0
 25 47  1  0  0  0  0
 25 48  1  0  0  0  0
M  END
> <PUBCHEM_COMPOUND_CID>
10759602

> <PUBCHEM_CONFORMER_RMSD>
0.8

> <PUBCHEM_CONFORMER_DIVERSEORDER>
4
50
10
70
68
34
62
13
30
37
47
11
72
60
61
7
19
55
46
33
77
66
43
64
21
59
74
23
69
31
53
73
51
57
78
39
56
48
38
42
18
28
49
54
35
52
29
40
65
6
36
41
27
12
44
5
79
76
58
67
14
45
71
16
24
75
17
15
8
26
32
3
22
20
2
9
63
1
25

> <PUBCHEM_MMFF94_PARTIAL_CHARGES>
32
1 -0.36
10 -0.14
11 -0.14
12 -0.15
13 0.08
14 0.28
15 -0.15
16 0.08
17 -0.15
18 -0.29
19 -0.15
2 -0.36
20 -0.15
21 0.08
22 -0.28
23 0.28
24 0.14
25 0.14
3 -0.53
31 0.15
34 0.15
35 0.15
36 0.15
37 0.15
38 0.15
39 0.45
4 -0.53
49 0.45
5 0.42
7 0.14
8 -0.14
9 0.08

> <PUBCHEM_EFFECTIVE_ROTOR_COUNT>
4.8

> <PUBCHEM_PHARMACOPHORE_FEATURES>
8
1 1 acceptor
1 2 acceptor
1 3 donor
1 4 donor
3 22 24 25 hydrophobe
6 1 5 6 7 8 9 rings
6 11 16 17 19 20 21 rings
6 8 9 10 12 13 15 rings

> <PUBCHEM_HEAVY_ATOM_COUNT>
25

> <PUBCHEM_ATOM_DEF_STEREO_COUNT>
0

> <PUBCHEM_ATOM_UDEF_STEREO_COUNT>
1

> <PUBCHEM_BOND_DEF_STEREO_COUNT>
0

> <PUBCHEM_BOND_UDEF_STEREO_COUNT>
0

> <PUBCHEM_ISOTOPIC_ATOM_COUNT>
0

> <PUBCHEM_COMPONENT_COUNT>
1

> <PUBCHEM_CACTVS_TAUTO_COUNT>
9

> <PUBCHEM_CONFORMER_ID>
00A42DB200000004

> <PUBCHEM_MMFF94_ENERGY>
74.7482

> <PUBCHEM_FEATURE_SELFOVERLAP>
40.625

> <PUBCHEM_SHAPE_FINGERPRINT>
10162869 55 18413387653937161819
10688039 33 18041843904818371764
10906281 52 18338244864093505464
12156800 1 17549298871899791957
12236239 1 17775564213432350147
12293681 4 18113346305444815632
12403259 327 17385444353449286323
12553582 1 18409172112585305812
12633257 1 18260823838727840786
13075007 39 17896058674691461833
13140716 1 18266457801154846930
13402501 40 18261949635882808357
13965767 371 18197190716025713216
14790565 3 18267027331183600140
14840074 17 18409169948175392464
14955137 171 18263096529636870122
15081414 286 18411984633185284020
151778 21 18044952404684436981
15238133 3 18115041713978778149
1601671 61 18411699907171427242
17357779 13 18336250259068272884
17980427 23 17917706958814498188
1813 80 18337966592434508100
18785283 64 18116166634680413525
20642791 178 18264778829266105025
20739085 24 18339372863558938730
21033648 29 17677314083256260629
21285901 2 18271250409406170926
21298829 104 18201159845886647953
21304253 335 17988647393188005320
21641784 216 18043551434076826348
335352 9 18343582945960337086
350125 39 18050290567733192522
4409770 3 15677768264606687823
474 4 18413107281844334827
5104073 3 18340196479763568658

> <PUBCHEM_SHAPE_MULTIPOLES>
491.01
10.12
3.97
1.32
3.82
3.53
0.24
-0.75
-3.29
-2.57
2.09
1.15
0.47
-0.69

> <PUBCHEM_SHAPE_SELFOVERLAP>
1054.463

> <PUBCHEM_SHAPE_VOLUME>
271.7

> <PUBCHEM_COORDINATE_TYPE>
2
5
10

$$$$
