155248
  -OEChem-09092016423D

 41 43  0     0  0  0  0  0  0999 V2000
    2.0901   -0.6753   -0.2169 O   0  0  0  0  0  0  0  0  0  0  0  0
   -2.6148   -1.8595   -1.0438 O   0  0  0  0  0  0  0  0  0  0  0  0
   -2.7647    2.8497   -0.1534 O   0  0  0  0  0  0  0  0  0  0  0  0
    6.7400   -1.9224    0.1335 O   0  0  0  0  0  0  0  0  0  0  0  0
    0.0515    0.5155   -0.2457 C   0  0  0  0  0  0  0  0  0  0  0  0
   -2.7222    0.4948   -0.6021 C   0  0  0  0  0  0  0  0  0  0  0  0
    1.4753    0.5264   -0.0631 C   0  0  0  0  0  0  0  0  0  0  0  0
   -4.2050    0.4836   -0.7928 C   0  0  0  0  0  0  0  0  0  0  0  0
    3.6601    0.8710    0.2809 C   0  0  0  0  0  0  0  0  0  0  0  0
   -1.9927   -0.6865   -0.7373 C   0  0  0  0  0  0  0  0  0  0  0  0
   -2.0683    1.6863   -0.2890 C   0  0  0  0  0  0  0  0  0  0  0  0
   -0.6093   -0.6762   -0.5595 C   0  0  0  0  0  0  0  0  0  0  0  0
   -0.6848    1.6967   -0.1114 C   0  0  0  0  0  0  0  0  0  0  0  0
    3.4209   -0.4685   -0.0082 C   0  0  0  0  0  0  0  0  0  0  0  0
    2.3911    1.5067    0.2423 C   0  0  0  0  0  0  0  0  0  0  0  0
   -4.9575    0.2179    0.4866 C   0  0  0  0  0  0  0  0  0  0  0  0
    4.9825    1.2790    0.5278 C   0  0  0  0  0  0  0  0  0  0  0  0
    4.4141   -1.4440   -0.0705 C   0  0  0  0  0  0  0  0  0  0  0  0
   -5.7799   -0.8109    0.7675 C   0  0  0  0  0  0  0  0  0  0  0  0
    5.7217   -1.0164    0.1780 C   0  0  0  0  0  0  0  0  0  0  0  0
    6.0034    0.3202    0.4720 C   0  0  0  0  0  0  0  0  0  0  0  0
   -6.5007   -1.0150    2.0698 C   0  0  0  0  0  0  0  0  0  0  0  0
   -6.0509   -1.8731   -0.2647 C   0  0  0  0  0  0  0  0  0  0  0  0
   -4.5383    1.4607   -1.1685 H   0  0  0  0  0  0  0  0  0  0  0  0
   -4.4670   -0.1903   -1.6119 H   0  0  0  0  0  0  0  0  0  0  0  0
   -0.0633   -1.6104   -0.6706 H   0  0  0  0  0  0  0  0  0  0  0  0
   -0.1912    2.6348    0.1321 H   0  0  0  0  0  0  0  0  0  0  0  0
    2.1877    2.5538    0.4186 H   0  0  0  0  0  0  0  0  0  0  0  0
   -4.8110    0.9645    1.2669 H   0  0  0  0  0  0  0  0  0  0  0  0
    5.2165    2.3141    0.7575 H   0  0  0  0  0  0  0  0  0  0  0  0
    4.1823   -2.4778   -0.2993 H   0  0  0  0  0  0  0  0  0  0  0  0
    7.0264    0.6366    0.6633 H   0  0  0  0  0  0  0  0  0  0  0  0
   -6.2867   -0.2084    2.7788 H   0  0  0  0  0  0  0  0  0  0  0  0
   -7.5830   -1.0393    1.9072 H   0  0  0  0  0  0  0  0  0  0  0  0
   -6.1939   -1.9579    2.5335 H   0  0  0  0  0  0  0  0  0  0  0  0
   -5.3919   -1.8700   -1.1319 H   0  0  0  0  0  0  0  0  0  0  0  0
   -5.9407   -2.8641    0.1910 H   0  0  0  0  0  0  0  0  0  0  0  0
   -7.0810   -1.7834   -0.6259 H   0  0  0  0  0  0  0  0  0  0  0  0
   -1.9519   -2.5692   -1.0948 H   0  0  0  0  0  0  0  0  0  0  0  0
   -2.1465    3.5681    0.0645 H   0  0  0  0  0  0  0  0  0  0  0  0
    7.5771   -1.4669    0.3278 H   0  0  0  0  0  0  0  0  0  0  0  0
  1  7  1  0  0  0  0
  1 14  1  0  0  0  0
  2 10  1  0  0  0  0
  2 39  1  0  0  0  0
  3 11  1  0  0  0  0
  3 40  1  0  0  0  0
  4 20  1  0  0  0  0
  4 41  1  0  0  0  0
  5  7  1  0  0  0  0
  5 12  2  0  0  0  0
  5 13  1  0  0  0  0
  6  8  1  0  0  0  0
  6 10  2  0  0  0  0
  6 11  1  0  0  0  0
  7 15  2  0  0  0  0
  8 16  1  0  0  0  0
  8 24  1  0  0  0  0
  8 25  1  0  0  0  0
  9 14  2  0  0  0  0
  9 15  1  0  0  0  0
  9 17  1  0  0  0  0
 10 12  1  0  0  0  0
 11 13  2  0  0  0  0
 12 26  1  0  0  0  0
 13 27  1  0  0  0  0
 14 18  1  0  0  0  0
 15 28  1  0  0  0  0
 16 19  2  0  0  0  0
 16 29  1  0  0  0  0
 17 21  2  0  0  0  0
 17 30  1  0  0  0  0
 18 20  2  0  0  0  0
 18 31  1  0  0  0  0
 19 22  1  0  0  0  0
 19 23  1  0  0  0  0
 20 21  1  0  0  0  0
 21 32  1  0  0  0  0
 22 33  1  0  0  0  0
 22 34  1  0  0  0  0
 22 35  1  0  0  0  0
 23 36  1  0  0  0  0
 23 37  1  0  0  0  0
 23 38  1  0  0  0  0
M  END
> <PUBCHEM_COMPOUND_CID>
155248

> <PUBCHEM_CONFORMER_RMSD>
0.6

> <PUBCHEM_CONFORMER_DIVERSEORDER>
1
11
16
17
21
23
3
26
12
20
4
18
25
5
9
13
22
24
8
6
2
10
14
19
15
7

> <PUBCHEM_MMFF94_PARTIAL_CHARGES>
32
1 -0.28
10 0.08
11 0.08
12 -0.15
13 -0.15
14 0.14
15 -0.15
16 -0.29
17 -0.15
18 -0.15
19 -0.28
2 -0.53
20 0.08
21 -0.15
22 0.14
23 0.14
26 0.15
27 0.15
28 0.15
29 0.15
3 -0.53
30 0.15
31 0.15
32 0.15
39 0.45
4 -0.53
40 0.45
41 0.45
5 0.05
6 -0.14
7 0.09
8 0.28

> <PUBCHEM_EFFECTIVE_ROTOR_COUNT>
3

> <PUBCHEM_PHARMACOPHORE_FEATURES>
8
1 1 acceptor
1 2 donor
1 3 donor
1 4 donor
3 19 22 23 hydrophobe
5 1 7 9 14 15 rings
6 5 6 10 11 12 13 rings
6 9 14 17 18 20 21 rings

> <PUBCHEM_HEAVY_ATOM_COUNT>
23

> <PUBCHEM_ATOM_DEF_STEREO_COUNT>
0

> <PUBCHEM_ATOM_UDEF_STEREO_COUNT>
0

> <PUBCHEM_BOND_DEF_STEREO_COUNT>
0

> <PUBCHEM_BOND_UDEF_STEREO_COUNT>
0

> <PUBCHEM_ISOTOPIC_ATOM_COUNT>
0

> <PUBCHEM_COMPONENT_COUNT>
1

> <PUBCHEM_CACTVS_TAUTO_COUNT>
20

> <PUBCHEM_CONFORMER_ID>
00025E7000000001

> <PUBCHEM_MMFF94_ENERGY>
48.5353

> <PUBCHEM_FEATURE_SELFOVERLAP>
40.698

> <PUBCHEM_SHAPE_FINGERPRINT>
10 15 18337663218163704656
11524674 6 16559029406574371311
12107183 9 17620188733571107440
12166972 35 17458349649688688308
12236239 1 18040152903274308268
12616971 3 17560792247681563884
12760667 363 18334013913264148283
12916748 109 18408322181581011768
13073987 5 18411133594343321224
13257819 101 12750970871402071673
13533116 47 18335422408907461724
13551218 46 18342458123298995071
13685833 64 18408042918069398906
13782708 43 17894908499524291562
13862211 1 18411980295600734951
1420 363 18260268550932577042
14251764 18 17846779650340679887
14341114 176 18412544319079728188
14849402 71 17631448050024782016
15042514 8 18339640161307937759
15196674 1 18341325605348663588
15238133 3 15913336809542966993
15510800 12 17313682554643062195
15716309 27 18410294726995212667
17492 89 18266737974751815434
17844677 252 18408889524917147076
1813 80 17603585227117446356
18222031 100 16515685546137737684
18335252 98 18114470053915751848
18769570 83 15267351708328349035
19141452 34 18131348656718867919
21130935 74 18060698411821452678
21150785 3 15864077580965490606
21267235 1 18412267212337757326
21623969 137 18412268332570393194
21637258 2 16805601529829102451
21792934 111 18341885295395793529
220451 1 17988641930511649476
23402539 116 18201708553522430101
23522609 53 18056503822248533601
23559900 14 18271228509136046920
23845131 108 17479752515724281217
2838139 119 13110965293319344451
29717793 49 12252173057473730376
350125 39 18341894099656587948
3545911 37 18343579647166769924
4214541 1 18341887447079229260
465052 167 18412826859551167854
5104073 3 18342450392721729768
542803 24 16415476060613909436
57724786 102 15553865806858067338
59755656 215 17530685411541839274
636775 8 18114476595272983770
8863177 126 18187933935899745371
9996256 80 18413387644028746890
999808 66 18260274044523218835

> <PUBCHEM_SHAPE_MULTIPOLES>
449.85
17.21
2.07
1
1.49
0.42
0.32
-8.52
5.55
-0.34
-0.11
-1.61
-0.24
0.72

> <PUBCHEM_SHAPE_SELFOVERLAP>
987.163

> <PUBCHEM_SHAPE_VOLUME>
244.6

> <PUBCHEM_COORDINATE_TYPE>
2
5
10

$$$$
