21604819
  -OEChem-09092016343D

 45 47  0     1  0  0  0  0  0999 V2000
    0.2109   -0.4153   -0.3196 O   0  0  0  0  0  0  0  0  0  0  0  0
    4.7509    0.9158   -0.7048 O   0  0  0  0  0  0  0  0  0  0  0  0
   -5.9661    0.5884   -0.0085 O   0  0  0  0  0  0  0  0  0  0  0  0
   -0.7119   -1.5154   -0.2557 C   0  0  1  0  0  0  0  0  0  0  0  0
   -0.4234   -2.4237    0.9426 C   0  0  0  0  0  0  0  0  0  0  0  0
    0.9655   -3.0295    0.7844 C   0  0  0  0  0  0  0  0  0  0  0  0
    1.9558   -1.9738    0.3843 C   0  0  0  0  0  0  0  0  0  0  0  0
    1.5298   -0.7495   -0.1474 C   0  0  0  0  0  0  0  0  0  0  0  0
    2.4632    0.2272   -0.5038 C   0  0  0  0  0  0  0  0  0  0  0  0
   -2.1163   -0.9529   -0.1896 C   0  0  0  0  0  0  0  0  0  0  0  0
    3.3289   -2.2195    0.5155 C   0  0  0  0  0  0  0  0  0  0  0  0
    2.0094    1.5434   -1.0525 C   0  0  0  0  0  0  0  0  0  0  0  0
    3.8267   -0.0234   -0.3577 C   0  0  0  0  0  0  0  0  0  0  0  0
    4.2597   -1.2473    0.1477 C   0  0  0  0  0  0  0  0  0  0  0  0
   -3.0184   -1.2063   -1.2228 C   0  0  0  0  0  0  0  0  0  0  0  0
   -2.5079   -0.1816    0.9047 C   0  0  0  0  0  0  0  0  0  0  0  0
    1.7810    2.5760    0.0215 C   0  0  0  0  0  0  0  0  0  0  0  0
   -4.3121   -0.6883   -1.1618 C   0  0  0  0  0  0  0  0  0  0  0  0
   -3.8016    0.3366    0.9657 C   0  0  0  0  0  0  0  0  0  0  0  0
   -4.7037    0.0832   -0.0675 C   0  0  0  0  0  0  0  0  0  0  0  0
    0.6333    3.2071    0.3351 C   0  0  0  0  0  0  0  0  0  0  0  0
    0.4754    4.2308    1.4232 C   0  0  0  0  0  0  0  0  0  0  0  0
   -0.6292    2.9182   -0.4330 C   0  0  0  0  0  0  0  0  0  0  0  0
   -0.6021   -2.0904   -1.1860 H   0  0  0  0  0  0  0  0  0  0  0  0
   -1.1709   -3.2206    1.0321 H   0  0  0  0  0  0  0  0  0  0  0  0
   -0.4426   -1.8490    1.8778 H   0  0  0  0  0  0  0  0  0  0  0  0
    0.9476   -3.8051    0.0092 H   0  0  0  0  0  0  0  0  0  0  0  0
    1.2653   -3.5003    1.7276 H   0  0  0  0  0  0  0  0  0  0  0  0
    3.6805   -3.1692    0.9111 H   0  0  0  0  0  0  0  0  0  0  0  0
    2.7742    1.9466   -1.7303 H   0  0  0  0  0  0  0  0  0  0  0  0
    1.1571    1.3971   -1.7204 H   0  0  0  0  0  0  0  0  0  0  0  0
    5.3195   -1.4581    0.2636 H   0  0  0  0  0  0  0  0  0  0  0  0
   -2.7284   -1.8052   -2.0819 H   0  0  0  0  0  0  0  0  0  0  0  0
   -1.8162    0.0380    1.7133 H   0  0  0  0  0  0  0  0  0  0  0  0
    2.6660    2.8366    0.6016 H   0  0  0  0  0  0  0  0  0  0  0  0
   -5.0104   -0.8889   -1.9697 H   0  0  0  0  0  0  0  0  0  0  0  0
   -4.0931    0.9389    1.8220 H   0  0  0  0  0  0  0  0  0  0  0  0
    5.6413    0.5644   -0.5331 H   0  0  0  0  0  0  0  0  0  0  0  0
    0.1259    5.1805    1.0060 H   0  0  0  0  0  0  0  0  0  0  0  0
   -0.2482    3.8873    2.1693 H   0  0  0  0  0  0  0  0  0  0  0  0
    1.4230    4.4198    1.9385 H   0  0  0  0  0  0  0  0  0  0  0  0
   -1.4554    2.7543    0.2680 H   0  0  0  0  0  0  0  0  0  0  0  0
   -0.8875    3.7817   -1.0555 H   0  0  0  0  0  0  0  0  0  0  0  0
   -0.6031    2.0407   -1.0772 H   0  0  0  0  0  0  0  0  0  0  0  0
   -6.0640    1.0959    0.8156 H   0  0  0  0  0  0  0  0  0  0  0  0
  1  4  1  0  0  0  0
  1  8  1  0  0  0  0
  2 13  1  0  0  0  0
  2 38  1  0  0  0  0
  3 20  1  0  0  0  0
  3 45  1  0  0  0  0
  4  5  1  0  0  0  0
  4 10  1  0  0  0  0
  4 24  1  0  0  0  0
  5  6  1  0  0  0  0
  5 25  1  0  0  0  0
  5 26  1  0  0  0  0
  6  7  1  0  0  0  0
  6 27  1  0  0  0  0
  6 28  1  0  0  0  0
  7  8  2  0  0  0  0
  7 11  1  0  0  0  0
  8  9  1  0  0  0  0
  9 12  1  0  0  0  0
  9 13  2  0  0  0  0
 10 15  2  0  0  0  0
 10 16  1  0  0  0  0
 11 14  2  0  0  0  0
 11 29  1  0  0  0  0
 12 17  1  0  0  0  0
 12 30  1  0  0  0  0
 12 31  1  0  0  0  0
 13 14  1  0  0  0  0
 14 32  1  0  0  0  0
 15 18  1  0  0  0  0
 15 33  1  0  0  0  0
 16 19  2  0  0  0  0
 16 34  1  0  0  0  0
 17 21  2  0  0  0  0
 17 35  1  0  0  0  0
 18 20  2  0  0  0  0
 18 36  1  0  0  0  0
 19 20  1  0  0  0  0
 19 37  1  0  0  0  0
 21 22  1  0  0  0  0
 21 23  1  0  0  0  0
 22 39  1  0  0  0  0
 22 40  1  0  0  0  0
 22 41  1  0  0  0  0
 23 42  1  0  0  0  0
 23 43  1  0  0  0  0
 23 44  1  0  0  0  0
M  END
> <PUBCHEM_COMPOUND_CID>
21604819

> <PUBCHEM_CONFORMER_RMSD>
0.6

> <PUBCHEM_CONFORMER_DIVERSEORDER>
1
39
22
47
25
34
42
38
16
46
40
8
37
5
48
18
35
27
33
32
19
6
30
24
29
13
28
43
44
20
12
26
41
14
45
49
15
21
36
3
7
2
4
17
31
23
9
10
11

> <PUBCHEM_MMFF94_PARTIAL_CHARGES>
31
1 -0.36
10 -0.14
11 -0.15
12 0.28
13 0.08
14 -0.15
15 -0.15
16 -0.15
17 -0.29
18 -0.15
19 -0.15
2 -0.53
20 0.08
21 -0.28
22 0.14
23 0.14
29 0.15
3 -0.53
32 0.15
33 0.15
34 0.15
35 0.15
36 0.15
37 0.15
38 0.45
4 0.42
45 0.45
6 0.14
7 -0.14
8 0.08
9 -0.14

> <PUBCHEM_EFFECTIVE_ROTOR_COUNT>
3.8

> <PUBCHEM_PHARMACOPHORE_FEATURES>
7
1 1 acceptor
1 2 donor
1 3 donor
3 21 22 23 hydrophobe
6 1 4 5 6 7 8 rings
6 10 15 16 18 19 20 rings
6 7 8 9 11 13 14 rings

> <PUBCHEM_HEAVY_ATOM_COUNT>
23

> <PUBCHEM_ATOM_DEF_STEREO_COUNT>
0

> <PUBCHEM_ATOM_UDEF_STEREO_COUNT>
1

> <PUBCHEM_BOND_DEF_STEREO_COUNT>
0

> <PUBCHEM_BOND_UDEF_STEREO_COUNT>
0

> <PUBCHEM_ISOTOPIC_ATOM_COUNT>
0

> <PUBCHEM_COMPONENT_COUNT>
1

> <PUBCHEM_CACTVS_TAUTO_COUNT>
6

> <PUBCHEM_CONFORMER_ID>
0149A9D300000001

> <PUBCHEM_MMFF94_ENERGY>
58.8202

> <PUBCHEM_FEATURE_SELFOVERLAP>
35.551

> <PUBCHEM_SHAPE_FINGERPRINT>
104564 63 18194969539275723244
10688039 33 17895479120342116269
10906281 52 18267320875123414204
1100329 8 18338518650334918866
11370993 70 17621870320373362817
11578080 2 17771593846631923305
11646440 116 18411705382779957072
12156800 1 17611710476144407640
12236239 1 18272931601218621159
12293681 160 18193299574888456708
12553582 1 18411140225339984530
12596599 1 17917165977876895229
12769317 202 18188477009118573231
12788726 201 18339655442891007052
13134695 92 18411975875583463236
13140716 1 18189334744189597002
13583140 156 18335146423252415915
13965767 371 17267533607218673377
14081887 123 18053928577174260880
14464042 87 18272093747366802337
14790565 3 18335997457647119340
18219364 16 18116444823854019243
18335252 114 18340194182541185709
18681886 176 18272358798083091859
192875 21 18272936028991981617
21033648 29 17385990789738647079
21041028 32 18192989314265175590
21344244 78 18047729547686258419
21641784 216 17969803894861747324
22122407 14 18269293304858614769
23402539 116 18272366460330680126
3014063 31 18410289173033150477
345986 75 18044638824858512882
34934 24 18339922727311479222
3524813 1 17967524666790602439
3886686 26 17687991595814584818
474 4 18408324401868367051
5104073 3 18041275573434582898
5895379 119 17131011813790135817
5939293 188 18341612667708398756
7164475 11 18196652887473096934
7226269 152 18335138739550466532
7471813 234 18270384036507158981
7832392 63 18340484594648526134
84936 182 18054223507930133489
9981440 41 17334196326900675153

> <PUBCHEM_SHAPE_MULTIPOLES>
455.72
8.85
4.13
1.1
7.39
4.02
-0.04
-1.48
1.37
-2.44
-1.57
0.37
0.18
-0.81

> <PUBCHEM_SHAPE_SELFOVERLAP>
980.858

> <PUBCHEM_SHAPE_VOLUME>
251

> <PUBCHEM_COORDINATE_TYPE>
2
5
10

$$$$
