85228900
  -OEChem-09092016332D

 91 95  0     1  0  0  0  0  0999 V2000
   13.3302   -0.5936    0.0000 O   0  0  0  0  0  0  0  0  0  0  0  0
    4.5981   -0.5931    0.0000 O   0  0  0  0  0  0  0  0  0  0  0  0
   12.4584    0.9031    0.0000 O   0  0  0  0  0  0  0  0  0  0  0  0
    6.3301   -0.5931    0.0000 O   0  0  0  0  0  0  0  0  0  0  0  0
    8.9663    0.9243    0.0000 O   0  0  0  0  0  0  0  0  0  0  0  0
   15.9225    0.9164    0.0000 O   0  0  0  0  0  0  0  0  0  0  0  0
   15.9302   -1.0836    0.0000 O   0  0  0  0  0  0  0  0  0  0  0  0
    4.5981   -3.5931    0.0000 O   0  0  0  0  0  0  0  0  0  0  0  0
    2.8660   -2.5931    0.0000 O   0  0  0  0  0  0  0  0  0  0  0  0
   14.1866    1.9098    0.0000 O   0  0  0  0  0  0  0  0  0  0  0  0
    6.3301   -2.5931    0.0000 O   0  0  0  0  0  0  0  0  0  0  0  0
   15.0699   -2.5869    0.0000 O   0  0  0  0  0  0  0  0  0  0  0  0
    2.0000   -1.0931    0.0000 O   0  0  0  0  0  0  0  0  0  0  0  0
    4.5981    2.4069    0.0000 O   0  0  0  0  0  0  0  0  0  0  0  0
   15.0584    0.4131    0.0000 C   0  0  3  0  0  0  0  0  0  0  0  0
   15.0622   -0.5869    0.0000 C   0  0  3  0  0  0  0  0  0  0  0  0
    4.5981   -2.5931    0.0000 C   0  0  3  0  0  0  0  0  0  0  0  0
    3.7320   -2.0931    0.0000 C   0  0  3  0  0  0  0  0  0  0  0  0
   14.1904    0.9098    0.0000 C   0  0  3  0  0  0  0  0  0  0  0  0
    5.4641   -2.0931    0.0000 C   0  0  3  0  0  0  0  0  0  0  0  0
   14.1981   -1.0902    0.0000 C   0  0  3  0  0  0  0  0  0  0  0  0
    3.7320   -1.0931    0.0000 C   0  0  3  0  0  0  0  0  0  0  0  0
   13.3263    0.4064    0.0000 C   0  0  3  0  0  0  0  0  0  0  0  0
    5.4641   -1.0931    0.0000 C   0  0  3  0  0  0  0  0  0  0  0  0
    8.0622    0.4069    0.0000 C   0  0  3  0  0  0  0  0  0  0  0  0
    8.0662   -0.6347    0.0000 C   0  0  0  0  0  0  0  0  0  0  0  0
    8.9742   -1.1450    0.0000 C   0  0  0  0  0  0  0  0  0  0  0  0
    9.8661   -0.6069    0.0000 C   0  0  0  0  0  0  0  0  0  0  0  0
    9.8622    0.3931    0.0000 C   0  0  0  0  0  0  0  0  0  0  0  0
   14.2020   -2.0902    0.0000 C   0  0  0  0  0  0  0  0  0  0  0  0
    7.1962    0.9069    0.0000 C   0  0  0  0  0  0  0  0  0  0  0  0
    2.8660   -0.5931    0.0000 C   0  0  0  0  0  0  0  0  0  0  0  0
   10.7263    0.8964    0.0000 C   0  0  0  0  0  0  0  0  0  0  0  0
   11.5943    0.3997    0.0000 C   0  0  0  0  0  0  0  0  0  0  0  0
    6.3301    0.4069    0.0000 C   0  0  0  0  0  0  0  0  0  0  0  0
   10.7341   -1.1036    0.0000 C   0  0  0  0  0  0  0  0  0  0  0  0
   11.5981   -0.6002    0.0000 C   0  0  0  0  0  0  0  0  0  0  0  0
   10.7225    1.8964    0.0000 C   0  0  0  0  0  0  0  0  0  0  0  0
    7.1962    1.9069    0.0000 C   0  0  0  0  0  0  0  0  0  0  0  0
    5.4641    0.9069    0.0000 C   0  0  0  0  0  0  0  0  0  0  0  0
    6.3301    2.4069    0.0000 C   0  0  0  0  0  0  0  0  0  0  0  0
    5.4641    1.9069    0.0000 C   0  0  0  0  0  0  0  0  0  0  0  0
   11.5866    2.3997    0.0000 C   0  0  0  0  0  0  0  0  0  0  0  0
   11.5827    3.3997    0.0000 C   0  0  0  0  0  0  0  0  0  0  0  0
   12.4468    3.9031    0.0000 C   0  0  0  0  0  0  0  0  0  0  0  0
   10.7148    3.8964    0.0000 C   0  0  0  0  0  0  0  0  0  0  0  0
    4.5981    3.4069    0.0000 C   0  0  0  0  0  0  0  0  0  0  0  0
   15.5965    0.1052    0.0000 H   0  0  0  0  0  0  0  0  0  0  0  0
   15.0646   -1.2069    0.0000 H   0  0  0  0  0  0  0  0  0  0  0  0
    4.0611   -2.9031    0.0000 H   0  0  0  0  0  0  0  0  0  0  0  0
    3.7320   -2.7131    0.0000 H   0  0  0  0  0  0  0  0  0  0  0  0
   14.7262    1.2218    0.0000 H   0  0  0  0  0  0  0  0  0  0  0  0
    5.4641   -2.7131    0.0000 H   0  0  0  0  0  0  0  0  0  0  0  0
   13.6624   -1.4023    0.0000 H   0  0  0  0  0  0  0  0  0  0  0  0
    3.7320   -0.4731    0.0000 H   0  0  0  0  0  0  0  0  0  0  0  0
   12.7906    0.0944    0.0000 H   0  0  0  0  0  0  0  0  0  0  0  0
    5.4641   -0.4731    0.0000 H   0  0  0  0  0  0  0  0  0  0  0  0
    7.5258    0.0959    0.0000 H   0  0  0  0  0  0  0  0  0  0  0  0
    7.4549   -0.5309    0.0000 H   0  0  0  0  0  0  0  0  0  0  0  0
    7.8594   -1.2192    0.0000 H   0  0  0  0  0  0  0  0  0  0  0  0
    8.5825   -1.6256    0.0000 H   0  0  0  0  0  0  0  0  0  0  0  0
    9.3806   -1.6132    0.0000 H   0  0  0  0  0  0  0  0  0  0  0  0
   13.5910   -1.9849    0.0000 H   0  0  0  0  0  0  0  0  0  0  0  0
   13.9922   -2.6736    0.0000 H   0  0  0  0  0  0  0  0  0  0  0  0
    3.2646   -0.1181    0.0000 H   0  0  0  0  0  0  0  0  0  0  0  0
    2.4675   -0.1181    0.0000 H   0  0  0  0  0  0  0  0  0  0  0  0
   10.7364   -1.7236    0.0000 H   0  0  0  0  0  0  0  0  0  0  0  0
   16.4606    0.6085    0.0000 H   0  0  0  0  0  0  0  0  0  0  0  0
   16.4659   -0.7715    0.0000 H   0  0  0  0  0  0  0  0  0  0  0  0
    5.1350   -3.9031    0.0000 H   0  0  0  0  0  0  0  0  0  0  0  0
    2.8660   -3.2131    0.0000 H   0  0  0  0  0  0  0  0  0  0  0  0
   12.1363   -0.9082    0.0000 H   0  0  0  0  0  0  0  0  0  0  0  0
   14.7223    2.2218    0.0000 H   0  0  0  0  0  0  0  0  0  0  0  0
    6.8671   -2.2831    0.0000 H   0  0  0  0  0  0  0  0  0  0  0  0
   10.5082    2.4782    0.0000 H   0  0  0  0  0  0  0  0  0  0  0  0
   10.1123    1.7864    0.0000 H   0  0  0  0  0  0  0  0  0  0  0  0
    7.7331    2.2169    0.0000 H   0  0  0  0  0  0  0  0  0  0  0  0
    4.9272    0.5969    0.0000 H   0  0  0  0  0  0  0  0  0  0  0  0
    6.3301    3.0269    0.0000 H   0  0  0  0  0  0  0  0  0  0  0  0
   15.0723   -3.2069    0.0000 H   0  0  0  0  0  0  0  0  0  0  0  0
    2.0000   -1.7131    0.0000 H   0  0  0  0  0  0  0  0  0  0  0  0
   12.1247    2.0918    0.0000 H   0  0  0  0  0  0  0  0  0  0  0  0
   12.7589    3.3673    0.0000 H   0  0  0  0  0  0  0  0  0  0  0  0
   12.9826    4.2151    0.0000 H   0  0  0  0  0  0  0  0  0  0  0  0
   12.1348    4.4388    0.0000 H   0  0  0  0  0  0  0  0  0  0  0  0
   11.0227    4.4345    0.0000 H   0  0  0  0  0  0  0  0  0  0  0  0
   10.1767    4.2043    0.0000 H   0  0  0  0  0  0  0  0  0  0  0  0
   10.4069    3.3582    0.0000 H   0  0  0  0  0  0  0  0  0  0  0  0
    5.2181    3.4069    0.0000 H   0  0  0  0  0  0  0  0  0  0  0  0
    4.5981    4.0269    0.0000 H   0  0  0  0  0  0  0  0  0  0  0  0
    3.9781    3.4069    0.0000 H   0  0  0  0  0  0  0  0  0  0  0  0
  1 21  1  0  0  0  0
  1 23  1  0  0  0  0
  2 22  1  0  0  0  0
  2 24  1  0  0  0  0
  3 23  1  0  0  0  0
  3 34  1  0  0  0  0
  4 24  1  0  0  0  0
  4 35  1  0  0  0  0
  5 25  1  0  0  0  0
  5 29  1  0  0  0  0
  6 15  1  0  0  0  0
  6 68  1  0  0  0  0
  7 16  1  0  0  0  0
  7 69  1  0  0  0  0
  8 17  1  0  0  0  0
  8 70  1  0  0  0  0
  9 18  1  0  0  0  0
  9 71  1  0  0  0  0
 10 19  1  0  0  0  0
 10 73  1  0  0  0  0
 11 20  1  0  0  0  0
 11 74  1  0  0  0  0
 12 30  1  0  0  0  0
 12 80  1  0  0  0  0
 13 32  1  0  0  0  0
 13 81  1  0  0  0  0
 14 42  1  0  0  0  0
 14 47  1  0  0  0  0
 15 16  1  0  0  0  0
 15 19  1  0  0  0  0
 15 48  1  0  0  0  0
 16 21  1  0  0  0  0
 16 49  1  0  0  0  0
 17 18  1  0  0  0  0
 17 20  1  0  0  0  0
 17 50  1  0  0  0  0
 18 22  1  0  0  0  0
 18 51  1  0  0  0  0
 19 23  1  0  0  0  0
 19 52  1  0  0  0  0
 20 24  1  0  0  0  0
 20 53  1  0  0  0  0
 21 30  1  0  0  0  0
 21 54  1  0  0  0  0
 22 32  1  0  0  0  0
 22 55  1  0  0  0  0
 23 56  1  0  0  0  0
 24 57  1  0  0  0  0
 25 26  1  0  0  0  0
 25 31  1  0  0  0  0
 25 58  1  0  0  0  0
 26 27  1  0  0  0  0
 26 59  1  0  0  0  0
 26 60  1  0  0  0  0
 27 28  1  0  0  0  0
 27 61  1  0  0  0  0
 27 62  1  0  0  0  0
 28 29  2  0  0  0  0
 28 36  1  0  0  0  0
 29 33  1  0  0  0  0
 30 63  1  0  0  0  0
 30 64  1  0  0  0  0
 31 35  2  0  0  0  0
 31 39  1  0  0  0  0
 32 65  1  0  0  0  0
 32 66  1  0  0  0  0
 33 34  2  0  0  0  0
 33 38  1  0  0  0  0
 34 37  1  0  0  0  0
 35 40  1  0  0  0  0
 36 37  2  0  0  0  0
 36 67  1  0  0  0  0
 37 72  1  0  0  0  0
 38 43  1  0  0  0  0
 38 75  1  0  0  0  0
 38 76  1  0  0  0  0
 39 41  2  0  0  0  0
 39 77  1  0  0  0  0
 40 42  2  0  0  0  0
 40 78  1  0  0  0  0
 41 42  1  0  0  0  0
 41 79  1  0  0  0  0
 43 44  2  0  0  0  0
 43 82  1  0  0  0  0
 44 45  1  0  0  0  0
 44 46  1  0  0  0  0
 45 83  1  0  0  0  0
 45 84  1  0  0  0  0
 45 85  1  0  0  0  0
 46 86  1  0  0  0  0
 46 87  1  0  0  0  0
 46 88  1  0  0  0  0
 47 89  1  0  0  0  0
 47 90  1  0  0  0  0
 47 91  1  0  0  0  0
M  END
> <PUBCHEM_COMPOUND_CID>
85228900

> <PUBCHEM_COMPOUND_CANONICALIZED>
1

> <PUBCHEM_CACTVS_COMPLEXITY>
1010

> <PUBCHEM_CACTVS_HBOND_ACCEPTOR>
14

> <PUBCHEM_CACTVS_HBOND_DONOR>
8

> <PUBCHEM_CACTVS_ROTATABLE_BOND>
10

> <PUBCHEM_CACTVS_SUBSKEYS>
AAADcfB8PAAAAAAAAAAAAAAAAAAAAAAAAAA0aJECAAAAAACRQAAAGgAACAAADBSwmAMyDoAABgCAAiBCAAACCAAgIAAIiAAGCIgdNyKEMRqieCClwBUPqAfA4OwOIAACCAAIAABAAAQQABAAAAAAAAAAAA==

> <PUBCHEM_IUPAC_OPENEYE_NAME>
2-(hydroxymethyl)-6-[2-[4-methoxy-2-[3,4,5-trihydroxy-6-(hydroxymethyl)tetrahydropyran-2-yl]oxy-phenyl]-8-(3-methylbut-2-enyl)chroman-7-yl]oxy-tetrahydropyran-3,4,5-triol

> <PUBCHEM_IUPAC_CAS_NAME>
2-(hydroxymethyl)-6-[[2-[4-methoxy-2-[[3,4,5-trihydroxy-6-(hydroxymethyl)-2-oxanyl]oxy]phenyl]-8-(3-methylbut-2-enyl)-3,4-dihydro-2H-1-benzopyran-7-yl]oxy]oxane-3,4,5-triol

> <PUBCHEM_IUPAC_NAME_MARKUP>
2-(hydroxymethyl)-6-[[2-[4-methoxy-2-[3,4,5-trihydroxy-6-(hydroxymethyl)oxan-2-yl]oxyphenyl]-8-(3-methylbut-2-enyl)-3,4-dihydro-2<I>H</I>-chromen-7-yl]oxy]oxane-3,4,5-triol

> <PUBCHEM_IUPAC_NAME>
2-(hydroxymethyl)-6-[[2-[4-methoxy-2-[3,4,5-trihydroxy-6-(hydroxymethyl)oxan-2-yl]oxyphenyl]-8-(3-methylbut-2-enyl)-3,4-dihydro-2H-chromen-7-yl]oxy]oxane-3,4,5-triol

> <PUBCHEM_IUPAC_SYSTEMATIC_NAME>
2-(hydroxymethyl)-6-[[2-[2-[6-(hydroxymethyl)-3,4,5-tris(oxidanyl)oxan-2-yl]oxy-4-methoxy-phenyl]-8-(3-methylbut-2-enyl)-3,4-dihydro-2H-chromen-7-yl]oxy]oxane-3,4,5-triol

> <PUBCHEM_IUPAC_TRADITIONAL_NAME>
2-[2-[4-methoxy-2-(3,4,5-trihydroxy-6-methylol-tetrahydropyran-2-yl)oxy-phenyl]-8-(3-methylbut-2-enyl)chroman-7-yl]oxy-6-methylol-tetrahydropyran-3,4,5-triol

> <PUBCHEM_IUPAC_INCHI>
InChI=1S/C33H44O14/c1-15(2)4-8-19-21(44-32-29(40)27(38)25(36)23(13-34)46-32)11-6-16-5-10-20(43-31(16)19)18-9-7-17(42-3)12-22(18)45-33-30(41)28(39)26(37)24(14-35)47-33/h4,6-7,9,11-12,20,23-30,32-41H,5,8,10,13-14H2,1-3H3

> <PUBCHEM_IUPAC_INCHIKEY>
OZZNZDSQQZCOEV-UHFFFAOYSA-N

> <PUBCHEM_XLOGP3_AA>
1.4

> <PUBCHEM_EXACT_MASS>
664.273106

> <PUBCHEM_MOLECULAR_FORMULA>
C33H44O14

> <PUBCHEM_MOLECULAR_WEIGHT>
664.7

> <PUBCHEM_OPENEYE_CAN_SMILES>
CC(=CCC1=C(C=CC2=C1OC(CC2)C3=C(C=C(C=C3)OC)OC4C(C(C(C(O4)CO)O)O)O)OC5C(C(C(C(O5)CO)O)O)O)C

> <PUBCHEM_OPENEYE_ISO_SMILES>
CC(=CCC1=C(C=CC2=C1OC(CC2)C3=C(C=C(C=C3)OC)OC4C(C(C(C(O4)CO)O)O)O)OC5C(C(C(C(O5)CO)O)O)O)C

> <PUBCHEM_CACTVS_TPSA>
217

> <PUBCHEM_MONOISOTOPIC_WEIGHT>
664.273106

> <PUBCHEM_TOTAL_CHARGE>
0

> <PUBCHEM_HEAVY_ATOM_COUNT>
47

> <PUBCHEM_ATOM_DEF_STEREO_COUNT>
0

> <PUBCHEM_ATOM_UDEF_STEREO_COUNT>
11

> <PUBCHEM_BOND_DEF_STEREO_COUNT>
0

> <PUBCHEM_BOND_UDEF_STEREO_COUNT>
0

> <PUBCHEM_ISOTOPIC_ATOM_COUNT>
0

> <PUBCHEM_COMPONENT_COUNT>
1

> <PUBCHEM_CACTVS_TAUTO_COUNT>
-1

> <PUBCHEM_COORDINATE_TYPE>
1
5
255

> <PUBCHEM_BONDANNOTATIONS>
19  10  3
20  11  3
21  30  3
22  32  3
25  31  3
28  29  8
28  36  8
29  33  8
23  3  3
31  35  8
31  39  8
33  34  8
34  37  8
35  40  8
36  37  8
39  41  8
24  4  3
40  42  8
41  42  8
15  6  3
16  7  3
17  8  3
18  9  3

$$$$
