5282948
  -OEChem-08232002523D

 53 52  0     1  0  0  0  0  0999 V2000
    6.0689    2.1471    0.3131 O   0  0  0  0  0  0  0  0  0  0  0  0
  -10.2617   -1.3028    0.5946 O   0  0  0  0  0  0  0  0  0  0  0  0
   -8.7857   -2.4928   -0.6643 O   0  0  0  0  0  0  0  0  0  0  0  0
   -4.3207    0.2052   -0.2792 C   0  0  0  0  0  0  0  0  0  0  0  0
   -3.3600    1.3250    0.1242 C   0  0  0  0  0  0  0  0  0  0  0  0
   -5.7246    0.4494    0.2767 C   0  0  0  0  0  0  0  0  0  0  0  0
   -1.9640    1.0979   -0.4595 C   0  0  0  0  0  0  0  0  0  0  0  0
   -6.6929   -0.6529   -0.1544 C   0  0  0  0  0  0  0  0  0  0  0  0
    7.1849   -0.5759   -0.1949 C   0  0  0  0  0  0  0  0  0  0  0  0
    5.7965   -0.2655    0.3784 C   0  0  0  0  0  0  0  0  0  0  0  0
    7.7455   -1.9251    0.2671 C   0  0  0  0  0  0  0  0  0  0  0  0
   -0.9956    2.2009   -0.0280 C   0  0  0  0  0  0  0  0  0  0  0  0
    5.2400    1.0737   -0.1254 C   0  0  1  0  0  0  0  0  0  0  0  0
    9.0974   -2.2701   -0.3591 C   0  0  0  0  0  0  0  0  0  0  0  0
   -8.0872   -0.4277    0.4279 C   0  0  0  0  0  0  0  0  0  0  0  0
    0.3822    1.9598   -0.5749 C   0  0  0  0  0  0  0  0  0  0  0  0
    3.8627    1.3174    0.4255 C   0  0  0  0  0  0  0  0  0  0  0  0
    9.6126   -3.6118    0.1397 C   0  0  0  0  0  0  0  0  0  0  0  0
    1.4619    1.7564    0.1946 C   0  0  0  0  0  0  0  0  0  0  0  0
    2.7822    1.5209   -0.3436 C   0  0  0  0  0  0  0  0  0  0  0  0
   -9.0425   -1.5290    0.0415 C   0  0  0  0  0  0  0  0  0  0  0  0
   -3.9410   -0.7562    0.0875 H   0  0  0  0  0  0  0  0  0  0  0  0
   -4.3666    0.1386   -1.3731 H   0  0  0  0  0  0  0  0  0  0  0  0
   -3.7495    2.2891   -0.2247 H   0  0  0  0  0  0  0  0  0  0  0  0
   -3.2988    1.3774    1.2180 H   0  0  0  0  0  0  0  0  0  0  0  0
   -6.0966    1.4200   -0.0732 H   0  0  0  0  0  0  0  0  0  0  0  0
   -5.6813    0.4952    1.3716 H   0  0  0  0  0  0  0  0  0  0  0  0
   -2.0249    1.0627   -1.5547 H   0  0  0  0  0  0  0  0  0  0  0  0
   -1.5847    0.1228   -0.1282 H   0  0  0  0  0  0  0  0  0  0  0  0
   -6.3103   -1.6278    0.1729 H   0  0  0  0  0  0  0  0  0  0  0  0
   -6.7508   -0.6889   -1.2494 H   0  0  0  0  0  0  0  0  0  0  0  0
    7.8876    0.2163    0.0904 H   0  0  0  0  0  0  0  0  0  0  0  0
    7.1280   -0.5698   -1.2904 H   0  0  0  0  0  0  0  0  0  0  0  0
    5.1075   -1.0763    0.1101 H   0  0  0  0  0  0  0  0  0  0  0  0
    5.8730   -0.2516    1.4736 H   0  0  0  0  0  0  0  0  0  0  0  0
    7.8421   -1.9154    1.3598 H   0  0  0  0  0  0  0  0  0  0  0  0
    7.0246   -2.7147    0.0207 H   0  0  0  0  0  0  0  0  0  0  0  0
   -0.9723    2.2641    1.0668 H   0  0  0  0  0  0  0  0  0  0  0  0
   -1.3508    3.1714   -0.3944 H   0  0  0  0  0  0  0  0  0  0  0  0
    5.2353    1.0882   -1.2210 H   0  0  0  0  0  0  0  0  0  0  0  0
    9.0038   -2.3013   -1.4507 H   0  0  0  0  0  0  0  0  0  0  0  0
    9.8279   -1.4896   -0.1173 H   0  0  0  0  0  0  0  0  0  0  0  0
   -8.4925    0.5224    0.0625 H   0  0  0  0  0  0  0  0  0  0  0  0
   -8.0301   -0.3949    1.5218 H   0  0  0  0  0  0  0  0  0  0  0  0
    0.4804    1.9603   -1.6583 H   0  0  0  0  0  0  0  0  0  0  0  0
    3.7632    1.3327    1.5093 H   0  0  0  0  0  0  0  0  0  0  0  0
    8.9169   -4.4181   -0.1139 H   0  0  0  0  0  0  0  0  0  0  0  0
   10.5795   -3.8404   -0.3193 H   0  0  0  0  0  0  0  0  0  0  0  0
    9.7461   -3.6016    1.2261 H   0  0  0  0  0  0  0  0  0  0  0  0
    1.3573    1.7604    1.2767 H   0  0  0  0  0  0  0  0  0  0  0  0
    2.8855    1.5097   -1.4258 H   0  0  0  0  0  0  0  0  0  0  0  0
    6.1592    2.0867    1.2797 H   0  0  0  0  0  0  0  0  0  0  0  0
  -10.9057   -2.0043    0.3593 H   0  0  0  0  0  0  0  0  0  0  0  0
  1 13  1  0  0  0  0
  1 52  1  0  0  0  0
  2 21  1  0  0  0  0
  2 53  1  0  0  0  0
  3 21  2  0  0  0  0
  4  5  1  0  0  0  0
  4  6  1  0  0  0  0
  4 22  1  0  0  0  0
  4 23  1  0  0  0  0
  5  7  1  0  0  0  0
  5 24  1  0  0  0  0
  5 25  1  0  0  0  0
  6  8  1  0  0  0  0
  6 26  1  0  0  0  0
  6 27  1  0  0  0  0
  7 12  1  0  0  0  0
  7 28  1  0  0  0  0
  7 29  1  0  0  0  0
  8 15  1  0  0  0  0
  8 30  1  0  0  0  0
  8 31  1  0  0  0  0
  9 10  1  0  0  0  0
  9 11  1  0  0  0  0
  9 32  1  0  0  0  0
  9 33  1  0  0  0  0
 10 13  1  0  0  0  0
 10 34  1  0  0  0  0
 10 35  1  0  0  0  0
 11 14  1  0  0  0  0
 11 36  1  0  0  0  0
 11 37  1  0  0  0  0
 12 16  1  0  0  0  0
 12 38  1  0  0  0  0
 12 39  1  0  0  0  0
 13 17  1  0  0  0  0
 13 40  1  0  0  0  0
 14 18  1  0  0  0  0
 14 41  1  0  0  0  0
 14 42  1  0  0  0  0
 15 21  1  0  0  0  0
 15 43  1  0  0  0  0
 15 44  1  0  0  0  0
 16 19  2  0  0  0  0
 16 45  1  0  0  0  0
 17 20  2  0  0  0  0
 17 46  1  0  0  0  0
 18 47  1  0  0  0  0
 18 48  1  0  0  0  0
 18 49  1  0  0  0  0
 19 20  1  0  0  0  0
 19 50  1  0  0  0  0
 20 51  1  0  0  0  0
M  END
> <PUBCHEM_COMPOUND_CID>
5282948

> <PUBCHEM_CONFORMER_RMSD>
1.2

> <PUBCHEM_CONFORMER_DIVERSEORDER>
2
32
105
12
33
51
124
113
18
83
5
159
128
122
1
111
42
150
38
175
118
104
78
56
61
24
89
35
68
28
102
72
135
10
100
133
132
98
165
36
64
103
44
19
109
85
164
166
65
69
152
121
95
96
136
148
43
126
163
112
62
77
57
15
127
45
82
99
140
58
153
116
16
139
114
80
108
142
76
151
37
92
172
129
138
53
31
67
11
147
39
115
46
22
6
70
7
75
161
79
106
93
34
66
48
110
107
134
40
156
144
20
145
14
23
27
41
119
149
155
120
9
84
81
141
63
13
176
162
52
90
60
146
21
167
25
174
158
29
73
97
3
143
55
117
173
154
130
47
170
87
137
30
26
49
17
88
125
4
131
74
59
123
8
160
86
94
54
71
101
157
168
171
91
169
50

> <PUBCHEM_MMFF94_PARTIAL_CHARGES>
17
1 -0.68
12 0.14
13 0.42
15 0.06
16 -0.29
17 -0.29
19 -0.15
2 -0.65
20 -0.15
21 0.66
3 -0.57
45 0.15
46 0.15
50 0.15
51 0.15
52 0.4
53 0.5

> <PUBCHEM_EFFECTIVE_ROTOR_COUNT>
14

> <PUBCHEM_PHARMACOPHORE_FEATURES>
7
1 1 acceptor
1 1 donor
1 18 hydrophobe
1 2 acceptor
1 3 acceptor
3 2 3 21 anion
4 9 10 11 14 hydrophobe

> <PUBCHEM_HEAVY_ATOM_COUNT>
21

> <PUBCHEM_ATOM_DEF_STEREO_COUNT>
0

> <PUBCHEM_ATOM_UDEF_STEREO_COUNT>
1

> <PUBCHEM_BOND_DEF_STEREO_COUNT>
2

> <PUBCHEM_BOND_UDEF_STEREO_COUNT>
0

> <PUBCHEM_ISOTOPIC_ATOM_COUNT>
0

> <PUBCHEM_COMPONENT_COUNT>
1

> <PUBCHEM_CACTVS_TAUTO_COUNT>
1

> <PUBCHEM_CONFORMER_ID>
00509C8400000002

> <PUBCHEM_MMFF94_ENERGY>
6.0249

> <PUBCHEM_FEATURE_SELFOVERLAP>
35.577

> <PUBCHEM_SHAPE_FINGERPRINT>
10411042 1 18409730647076067796
11211813 74 8646767803607725018
11463208 3 18408325488632762867
11607047 74 18189340242386799860
11638347 137 18413109480914829233
12539745 222 18131354060073121897
12592606 108 18408886234808096240
13668630 136 18040712584805284653
14026016 60 15502924222542696354
14202775 3 18262242235669289371
14216079 64 18409730664217857340
14344974 52 8790881874934243473
14428016 167 18411132537069469703
14617042 71 9727628419351600794
155225 1 9439406826523586059
15690457 1 18411697720906674393
1768 4 9511463351531272279
1818759 1 18187087286977802955
18643901 69 17894630357948319109
20165401 70 18412260657716880646
2026 5 18337107865495966766
21102433 48 17988358283105303879
21130990 3 18270403785716923518
21130991 4 18187642450256516642
21267235 1 18408604755547487524
21304304 249 18408044021786349462
21362267 20 18196655327938856379
22224240 67 13398639368401795941
23523787 8 15140970539461264184
246663 6 17894629297313144113
2835820 83 18410575038284335990
28498 318 18261107505077012101
33532 11 18411417332361465357
3711267 37 8718543964812098063
57828716 42 18340771456949354974
57828716 57 16986328072205892062
59848396 5 18130779102003116287
636775 72 9943813287962284839

> <PUBCHEM_SHAPE_MULTIPOLES>
414.56
39.75
3.29
0.72
22.83
1.84
-0.01
47.65
2.04
-5.67
-0.12
0.13
0.01
0

> <PUBCHEM_SHAPE_SELFOVERLAP>
772.844

> <PUBCHEM_SHAPE_VOLUME>
258.3

> <PUBCHEM_COORDINATE_TYPE>
2
5
10

$$$$
