12315102
  -OEChem-08232003063D

 50 53  0     1  0  0  0  0  0999 V2000
    1.8469   -0.1987    1.8742 O   0  0  0  0  0  0  0  0  0  0  0  0
   -4.1234   -2.5816    0.6458 O   0  0  0  0  0  0  0  0  0  0  0  0
   -4.9542    0.0688    0.5507 O   0  0  0  0  0  0  0  0  0  0  0  0
    4.9449   -1.4799    0.1839 O   0  0  0  0  0  0  0  0  0  0  0  0
   -1.6067    3.3936   -0.5605 O   0  0  0  0  0  0  0  0  0  0  0  0
   -1.5793   -0.2134   -0.9146 C   0  0  2  0  0  0  0  0  0  0  0  0
   -0.2243   -0.5330   -0.1677 C   0  0  2  0  0  0  0  0  0  0  0  0
    2.0341    0.4192    0.5787 C   0  0  1  0  0  0  0  0  0  0  0  0
    2.7506   -0.5773   -0.3641 C   0  0  2  0  0  0  0  0  0  0  0  0
    0.6427    0.7154    0.0677 C   0  0  0  0  0  0  0  0  0  0  0  0
   -2.2154    1.0790   -0.3321 C   0  0  1  0  0  0  0  0  0  0  0  0
    0.5567   -1.7166   -0.8261 C   0  0  0  0  0  0  0  0  0  0  0  0
    2.0035   -1.9093   -0.3404 C   0  0  0  0  0  0  0  0  0  0  0  0
   -2.6005   -1.3774   -0.7688 C   0  0  0  0  0  0  0  0  0  0  0  0
    3.0866    1.5168    0.7938 C   0  0  0  0  0  0  0  0  0  0  0  0
   -2.7564    0.9094    1.0992 C   0  0  0  0  0  0  0  0  0  0  0  0
    4.1300   -0.5711    0.2743 C   0  0  0  0  0  0  0  0  0  0  0  0
   -3.1379   -1.5514    0.6539 C   0  0  1  0  0  0  0  0  0  0  0  0
   -1.3557    0.0044   -2.4362 C   0  0  0  0  0  0  0  0  0  0  0  0
    4.3891    0.7273    1.0174 C   0  0  0  0  0  0  0  0  0  0  0  0
    0.1915    1.9705   -0.0709 C   0  0  0  0  0  0  0  0  0  0  0  0
   -1.2342    2.2374   -0.3650 C   0  0  0  0  0  0  0  0  0  0  0  0
   -3.7345   -0.2595    1.2174 C   0  0  2  0  0  0  0  0  0  0  0  0
    2.9459   -0.0729   -1.8108 C   0  0  0  0  0  0  0  0  0  0  0  0
   -0.4923   -0.8819    0.8361 H   0  0  0  0  0  0  0  0  0  0  0  0
   -3.0572    1.3692   -0.9774 H   0  0  0  0  0  0  0  0  0  0  0  0
    0.5984   -1.5925   -1.9120 H   0  0  0  0  0  0  0  0  0  0  0  0
    0.0130   -2.6525   -0.6521 H   0  0  0  0  0  0  0  0  0  0  0  0
    2.0175   -2.3724    0.6528 H   0  0  0  0  0  0  0  0  0  0  0  0
    2.5056   -2.6354   -0.9930 H   0  0  0  0  0  0  0  0  0  0  0  0
   -2.1711   -2.3242   -1.1175 H   0  0  0  0  0  0  0  0  0  0  0  0
   -3.4542   -1.2014   -1.4393 H   0  0  0  0  0  0  0  0  0  0  0  0
    2.8725    2.1424    1.6673 H   0  0  0  0  0  0  0  0  0  0  0  0
    3.1839    2.1722   -0.0789 H   0  0  0  0  0  0  0  0  0  0  0  0
   -1.9302    0.7643    1.8056 H   0  0  0  0  0  0  0  0  0  0  0  0
   -3.2598    1.8381    1.3978 H   0  0  0  0  0  0  0  0  0  0  0  0
   -2.3353   -1.8906    1.3172 H   0  0  0  0  0  0  0  0  0  0  0  0
   -1.1363   -0.9353   -2.9536 H   0  0  0  0  0  0  0  0  0  0  0  0
   -2.2562    0.4117   -2.9114 H   0  0  0  0  0  0  0  0  0  0  0  0
   -0.5359    0.7000   -2.6396 H   0  0  0  0  0  0  0  0  0  0  0  0
    4.5432    0.5069    2.0775 H   0  0  0  0  0  0  0  0  0  0  0  0
    5.2516    1.2516    0.6004 H   0  0  0  0  0  0  0  0  0  0  0  0
    0.8174    2.8372    0.1070 H   0  0  0  0  0  0  0  0  0  0  0  0
   -3.9989   -0.4085    2.2707 H   0  0  0  0  0  0  0  0  0  0  0  0
    3.4145   -0.8513   -2.4250 H   0  0  0  0  0  0  0  0  0  0  0  0
    2.0038    0.2049   -2.2917 H   0  0  0  0  0  0  0  0  0  0  0  0
    3.6073    0.7988   -1.8643 H   0  0  0  0  0  0  0  0  0  0  0  0
    1.2065   -0.9234    1.8329 H   0  0  0  0  0  0  0  0  0  0  0  0
   -3.6995   -3.3916    0.3146 H   0  0  0  0  0  0  0  0  0  0  0  0
   -5.5371   -0.7070    0.6141 H   0  0  0  0  0  0  0  0  0  0  0  0
  1  8  1  0  0  0  0
  1 48  1  0  0  0  0
  2 18  1  0  0  0  0
  2 49  1  0  0  0  0
  3 23  1  0  0  0  0
  3 50  1  0  0  0  0
  4 17  2  0  0  0  0
  5 22  2  0  0  0  0
  6  7  1  0  0  0  0
  6 11  1  0  0  0  0
  6 14  1  0  0  0  0
  6 19  1  0  0  0  0
  7 10  1  0  0  0  0
  7 12  1  0  0  0  0
  7 25  1  0  0  0  0
  8  9  1  0  0  0  0
  8 10  1  0  0  0  0
  8 15  1  0  0  0  0
  9 13  1  0  0  0  0
  9 17  1  0  0  0  0
  9 24  1  0  0  0  0
 10 21  2  0  0  0  0
 11 16  1  0  0  0  0
 11 22  1  0  0  0  0
 11 26  1  0  0  0  0
 12 13  1  0  0  0  0
 12 27  1  0  0  0  0
 12 28  1  0  0  0  0
 13 29  1  0  0  0  0
 13 30  1  0  0  0  0
 14 18  1  0  0  0  0
 14 31  1  0  0  0  0
 14 32  1  0  0  0  0
 15 20  1  0  0  0  0
 15 33  1  0  0  0  0
 15 34  1  0  0  0  0
 16 23  1  0  0  0  0
 16 35  1  0  0  0  0
 16 36  1  0  0  0  0
 17 20  1  0  0  0  0
 18 23  1  0  0  0  0
 18 37  1  0  0  0  0
 19 38  1  0  0  0  0
 19 39  1  0  0  0  0
 19 40  1  0  0  0  0
 20 41  1  0  0  0  0
 20 42  1  0  0  0  0
 21 22  1  0  0  0  0
 21 43  1  0  0  0  0
 23 44  1  0  0  0  0
 24 45  1  0  0  0  0
 24 46  1  0  0  0  0
 24 47  1  0  0  0  0
M  END
> <PUBCHEM_COMPOUND_CID>
12315102

> <PUBCHEM_CONFORMER_RMSD>
0.6

> <PUBCHEM_CONFORMER_DIVERSEORDER>
1
2
3

> <PUBCHEM_MMFF94_PARTIAL_CHARGES>
20
1 -0.68
10 -0.28
11 0.06
17 0.45
18 0.28
2 -0.68
20 0.06
21 -0.14
22 0.49
23 0.28
3 -0.68
4 -0.57
43 0.15
48 0.4
49 0.4
5 -0.57
50 0.4
7 0.14
8 0.42
9 0.06

> <PUBCHEM_EFFECTIVE_ROTOR_COUNT>
1.6

> <PUBCHEM_PHARMACOPHORE_FEATURES>
12
1 1 acceptor
1 1 donor
1 2 acceptor
1 2 donor
1 3 acceptor
1 3 donor
1 4 acceptor
1 5 acceptor
5 8 9 15 17 20 rings
6 6 11 14 16 18 23 rings
6 6 7 10 11 21 22 rings
6 7 8 9 10 12 13 rings

> <PUBCHEM_HEAVY_ATOM_COUNT>
24

> <PUBCHEM_ATOM_DEF_STEREO_COUNT>
7

> <PUBCHEM_ATOM_UDEF_STEREO_COUNT>
0

> <PUBCHEM_BOND_DEF_STEREO_COUNT>
0

> <PUBCHEM_BOND_UDEF_STEREO_COUNT>
0

> <PUBCHEM_ISOTOPIC_ATOM_COUNT>
0

> <PUBCHEM_COMPONENT_COUNT>
1

> <PUBCHEM_CACTVS_TAUTO_COUNT>
10

> <PUBCHEM_CONFORMER_ID>
00BBE9DE00000001

> <PUBCHEM_MMFF94_ENERGY>
79.9424

> <PUBCHEM_FEATURE_SELFOVERLAP>
61.04

> <PUBCHEM_SHAPE_FINGERPRINT>
10675989 125 16685118875288233104
1100329 8 14015063416213283955
11132069 177 18413112770664456267
11552529 35 17988643055672326739
11578080 2 17459454701814103773
11640471 11 12751235904563165676
12011746 2 18341615872117855661
12403814 3 18273490165577520245
12553582 1 18335433399580695975
12592029 89 10375882852990236301
12633257 1 18271822180831969739
128620 24 17603867823233367460
12892183 10 17845945120788318843
13140716 1 18341051903856518401
13224815 77 18407759235653383020
13544653 18 18040998492045514707
13583140 156 18269546157407820790
14081887 123 18408605829520972067
14178342 30 18115865200980102828
14223421 5 18341051809156039910
14289901 80 18040443152837263586
14787075 74 17678457682902892328
14790565 3 17761500591782275716
15209289 33 18272652359223977794
15309172 13 18343298180136513135
16945 1 18412261696861420596
17349148 13 16805319985906088096
1813 80 17530972414272698039
18186145 218 17846776291829066204
19141452 34 18343866632512661819
200 152 14418135118890196811
20028762 73 17911807074358545751
20261772 1 18201438099057020162
20600515 1 17822586009162653807
21033648 29 17418371372843370267
221490 88 18341611469950619306
22182313 1 17916307130747367766
23184049 59 18131635607578082719
23402539 116 18186517704988474738
23419403 2 17608627729587765397
23493267 7 18117832209886099272
23557571 272 18187363194827805708
23559900 14 18191032204984600854
2748010 2 18200584800961948748
296302 2 14764342743559684834
350125 39 18342178869368879056
5104073 3 18341884153107884674
6287921 2 17986109849400876064
9709674 26 18197775505655537190

> <PUBCHEM_SHAPE_MULTIPOLES>
464.56
8.19
2.41
1.49
1.45
0.82
-0.48
-2.41
2.88
-1.15
-0.18
-0.17
-0.05
0.74

> <PUBCHEM_SHAPE_SELFOVERLAP>
1010.503

> <PUBCHEM_SHAPE_VOLUME>
250

> <PUBCHEM_COORDINATE_TYPE>
2
5
10

$$$$
