12358846
  -OEChem-08282003123D

 61 63  0     1  0  0  0  0  0999 V2000
   -2.3702   -1.7682   -0.5808 O   0  0  0  0  0  0  0  0  0  0  0  0
    2.1167   -1.0540    0.3081 O   0  0  0  0  0  0  0  0  0  0  0  0
    0.6103   -1.9568    2.5627 O   0  0  0  0  0  0  0  0  0  0  0  0
    0.1412   -0.8630   -1.6311 O   0  0  0  0  0  0  0  0  0  0  0  0
   -2.3377   -5.0745    0.4703 O   0  0  0  0  0  0  0  0  0  0  0  0
   -3.6123   -4.0799   -1.1367 O   0  0  0  0  0  0  0  0  0  0  0  0
   -3.7906   -2.1515    1.2007 O   0  0  0  0  0  0  0  0  0  0  0  0
    3.7852   -2.5241   -0.3181 O   0  0  0  0  0  0  0  0  0  0  0  0
   -8.0504    3.9562    1.5992 O   0  0  0  0  0  0  0  0  0  0  0  0
    9.8590    1.7262   -1.1258 O   0  0  0  0  0  0  0  0  0  0  0  0
   -7.7697    5.0204   -0.9524 O   0  0  0  0  0  0  0  0  0  0  0  0
    9.1885    3.9755    0.3618 O   0  0  0  0  0  0  0  0  0  0  0  0
   -1.6474   -2.9562   -0.2815 C   0  0  0  0  0  0  0  0  0  0  0  0
   -1.0694   -2.8806    1.1332 C   0  0  0  0  0  0  0  0  0  0  0  0
   -0.5514   -3.1672   -1.3363 C   0  0  0  0  0  0  0  0  0  0  0  0
    1.1448   -2.0938    0.2120 C   0  0  0  0  0  0  0  0  0  0  0  0
    0.0514   -1.8456    1.2537 C   0  0  2  0  0  0  0  0  0  0  0  0
    0.5919   -2.1528   -1.2159 C   0  0  2  0  0  0  0  0  0  0  0  0
   -2.6476   -4.0710   -0.3866 C   0  0  0  0  0  0  0  0  0  0  0  0
   -3.4197   -1.4887    0.2448 C   0  0  0  0  0  0  0  0  0  0  0  0
    3.3970   -1.4154    0.0139 C   0  0  0  0  0  0  0  0  0  0  0  0
   -4.0431   -0.2292   -0.2210 C   0  0  0  0  0  0  0  0  0  0  0  0
    4.2520   -0.2167    0.1691 C   0  0  0  0  0  0  0  0  0  0  0  0
   -5.1064    0.2623    0.4310 C   0  0  0  0  0  0  0  0  0  0  0  0
    5.5689   -0.3098   -0.0640 C   0  0  0  0  0  0  0  0  0  0  0  0
   -5.8058    1.5084    0.0717 C   0  0  0  0  0  0  0  0  0  0  0  0
    6.5195    0.8107    0.0461 C   0  0  0  0  0  0  0  0  0  0  0  0
   -6.6074    2.1547    1.0127 C   0  0  0  0  0  0  0  0  0  0  0  0
   -5.6662    2.0419   -1.2095 C   0  0  0  0  0  0  0  0  0  0  0  0
    7.7550    0.7431   -0.5978 C   0  0  0  0  0  0  0  0  0  0  0  0
    6.1837    1.9392    0.7939 C   0  0  0  0  0  0  0  0  0  0  0  0
   -7.2692    3.3345    0.6727 C   0  0  0  0  0  0  0  0  0  0  0  0
   -6.3282    3.2216   -1.5497 C   0  0  0  0  0  0  0  0  0  0  0  0
    8.6548    1.8040   -0.4940 C   0  0  0  0  0  0  0  0  0  0  0  0
    7.0835    3.0000    0.8979 C   0  0  0  0  0  0  0  0  0  0  0  0
   -7.1296    3.8681   -0.6085 C   0  0  0  0  0  0  0  0  0  0  0  0
    8.3189    2.9325    0.2539 C   0  0  0  0  0  0  0  0  0  0  0  0
   -0.6197   -3.8463    1.4088 H   0  0  0  0  0  0  0  0  0  0  0  0
   -1.7945   -2.7016    1.9304 H   0  0  0  0  0  0  0  0  0  0  0  0
   -0.9929   -3.0902   -2.3384 H   0  0  0  0  0  0  0  0  0  0  0  0
   -0.1365   -4.1790   -1.2399 H   0  0  0  0  0  0  0  0  0  0  0  0
    1.6098   -3.0586    0.4599 H   0  0  0  0  0  0  0  0  0  0  0  0
   -0.3419   -0.8268    1.1578 H   0  0  0  0  0  0  0  0  0  0  0  0
    1.3974   -2.4273   -1.9067 H   0  0  0  0  0  0  0  0  0  0  0  0
   -0.0967   -1.7625    3.2015 H   0  0  0  0  0  0  0  0  0  0  0  0
   -0.1832   -0.9447   -2.5441 H   0  0  0  0  0  0  0  0  0  0  0  0
   -2.9811   -5.8130    0.4177 H   0  0  0  0  0  0  0  0  0  0  0  0
   -3.5880    0.2590   -1.0749 H   0  0  0  0  0  0  0  0  0  0  0  0
    3.7598    0.7069    0.4509 H   0  0  0  0  0  0  0  0  0  0  0  0
   -5.5043   -0.2588    1.2989 H   0  0  0  0  0  0  0  0  0  0  0  0
    6.0044   -1.2584   -0.3698 H   0  0  0  0  0  0  0  0  0  0  0  0
   -6.7180    1.7424    2.0134 H   0  0  0  0  0  0  0  0  0  0  0  0
   -5.0694    1.5631   -1.9801 H   0  0  0  0  0  0  0  0  0  0  0  0
    8.0204   -0.1349   -1.1830 H   0  0  0  0  0  0  0  0  0  0  0  0
    5.2424    2.0275    1.3283 H   0  0  0  0  0  0  0  0  0  0  0  0
   -6.2144    3.6244   -2.5527 H   0  0  0  0  0  0  0  0  0  0  0  0
    6.8113    3.8717    1.4872 H   0  0  0  0  0  0  0  0  0  0  0  0
   -8.0289    3.4454    2.4266 H   0  0  0  0  0  0  0  0  0  0  0  0
    9.9177    0.8754   -1.5935 H   0  0  0  0  0  0  0  0  0  0  0  0
   -7.5561    5.2379   -1.8760 H   0  0  0  0  0  0  0  0  0  0  0  0
    8.7869    4.6667    0.9161 H   0  0  0  0  0  0  0  0  0  0  0  0
  1 13  1  0  0  0  0
  1 20  1  0  0  0  0
  2 16  1  0  0  0  0
  2 21  1  0  0  0  0
  3 17  1  0  0  0  0
  3 45  1  0  0  0  0
  4 18  1  0  0  0  0
  4 46  1  0  0  0  0
  5 19  1  0  0  0  0
  5 47  1  0  0  0  0
  6 19  2  0  0  0  0
  7 20  2  0  0  0  0
  8 21  2  0  0  0  0
  9 32  1  0  0  0  0
  9 58  1  0  0  0  0
 10 34  1  0  0  0  0
 10 59  1  0  0  0  0
 11 36  1  0  0  0  0
 11 60  1  0  0  0  0
 12 37  1  0  0  0  0
 12 61  1  0  0  0  0
 13 14  1  0  0  0  0
 13 15  1  0  0  0  0
 13 19  1  0  0  0  0
 14 17  1  0  0  0  0
 14 38  1  0  0  0  0
 14 39  1  0  0  0  0
 15 18  1  0  0  0  0
 15 40  1  0  0  0  0
 15 41  1  0  0  0  0
 16 17  1  0  0  0  0
 16 18  1  0  0  0  0
 16 42  1  0  0  0  0
 17 43  1  0  0  0  0
 18 44  1  0  0  0  0
 20 22  1  0  0  0  0
 21 23  1  0  0  0  0
 22 24  2  0  0  0  0
 22 48  1  0  0  0  0
 23 25  2  0  0  0  0
 23 49  1  0  0  0  0
 24 26  1  0  0  0  0
 24 50  1  0  0  0  0
 25 27  1  0  0  0  0
 25 51  1  0  0  0  0
 26 28  2  0  0  0  0
 26 29  1  0  0  0  0
 27 30  2  0  0  0  0
 27 31  1  0  0  0  0
 28 32  1  0  0  0  0
 28 52  1  0  0  0  0
 29 33  2  0  0  0  0
 29 53  1  0  0  0  0
 30 34  1  0  0  0  0
 30 54  1  0  0  0  0
 31 35  2  0  0  0  0
 31 55  1  0  0  0  0
 32 36  2  0  0  0  0
 33 36  1  0  0  0  0
 33 56  1  0  0  0  0
 34 37  2  0  0  0  0
 35 37  1  0  0  0  0
 35 57  1  0  0  0  0
M  END
> <PUBCHEM_COMPOUND_CID>
12358846

> <PUBCHEM_CONFORMER_RMSD>
1

> <PUBCHEM_CONFORMER_DIVERSEORDER>
1
21
97
73
101
63
31
32
121
18
28
89
116
29
70
95
40
85
43
119
115
66
42
103
75
20
99
76
86
26
78
102
38
79
50
19
23
93
22
80
34
87
47
82
118
120
64
9
52
60
44
83
57
58
72
90
14
36
51
55
106
111
110
107
113
45
39
100
41
84
16
108
54
61
88
27
92
117
109
25
65
37
122
98
30
59
68
114
8
49
74
112
4
104
91
96
81
56
12
69
94
10
24
71
77
53
105
5
3
13
33
48
17
67
7
6
15
11
46
35
62
2

> <PUBCHEM_MMFF94_PARTIAL_CHARGES>
52
1 -0.43
10 -0.53
11 -0.53
12 -0.53
13 0.34
16 0.28
17 0.28
18 0.28
19 0.66
2 -0.43
20 0.71
21 0.71
22 -0.14
23 -0.14
24 -0.18
25 -0.18
26 0.03
27 0.03
28 -0.15
29 -0.15
3 -0.68
30 -0.15
31 -0.15
32 0.08
33 -0.15
34 0.08
35 -0.15
36 0.08
37 0.08
4 -0.68
45 0.4
46 0.4
47 0.5
48 0.15
49 0.15
5 -0.65
50 0.15
51 0.15
52 0.15
53 0.15
54 0.15
55 0.15
56 0.15
57 0.15
58 0.45
59 0.45
6 -0.57
60 0.45
61 0.45
7 -0.57
8 -0.57
9 -0.53

> <PUBCHEM_EFFECTIVE_ROTOR_COUNT>
10.2

> <PUBCHEM_PHARMACOPHORE_FEATURES>
16
1 10 donor
1 11 donor
1 12 donor
1 3 acceptor
1 3 donor
1 4 acceptor
1 4 donor
1 5 acceptor
1 6 acceptor
1 7 acceptor
1 8 acceptor
1 9 donor
3 5 6 19 anion
6 13 14 15 16 17 18 rings
6 26 28 29 32 33 36 rings
6 27 30 31 34 35 37 rings

> <PUBCHEM_HEAVY_ATOM_COUNT>
37

> <PUBCHEM_ATOM_DEF_STEREO_COUNT>
2

> <PUBCHEM_ATOM_UDEF_STEREO_COUNT>
0

> <PUBCHEM_BOND_DEF_STEREO_COUNT>
2

> <PUBCHEM_BOND_UDEF_STEREO_COUNT>
0

> <PUBCHEM_ISOTOPIC_ATOM_COUNT>
0

> <PUBCHEM_COMPONENT_COUNT>
1

> <PUBCHEM_CACTVS_TAUTO_COUNT>
51

> <PUBCHEM_CONFORMER_ID>
00BC94BE00000001

> <PUBCHEM_MMFF94_ENERGY>
107.6104

> <PUBCHEM_FEATURE_SELFOVERLAP>
81.268

> <PUBCHEM_SHAPE_FINGERPRINT>
10055352 69 18273213093987131241
10280341 67 18408880724476617980
10533779 1 18336536132450833789
10625338 131 18410285913928310072
11135609 201 18336828594686311523
11181472 205 18187083984702210316
11621639 254 18271516616037921111
12013929 29 18198623233463180677
12133447 93 18339934826778236804
12895837 130 18335985350001760731
13726171 33 18410859824680098779
14359421 15 12031781432186627765
14394314 77 18410857650726026613
14512766 119 18342463672612765900
14904525 67 18056468677227398512
14919807 6 18341628001675199668
15152005 290 18411418393281697591
15347591 1 18412263939378739734
15685185 35 18271812294308423305
15803439 3 16702296845663380207
16067689 68 11603091718055497781
16114785 44 18260834834261675595
16120349 189 18410005499739839007
16126227 98 18410575076685197477
16728433 281 18343301474550717089
16994733 274 18334289907846551104
19053607 189 18271794718800893242
19304671 126 18199755756393944094
19309040 13 18201149975492483727
2026 5 9295283937392936429
20691028 202 18410289203103047004
21585482 111 18409730638833864172
21792965 106 17977100490648803016
21796203 349 14779269735136257038
23516275 100 18044934568081669325
23523788 1 12613037132785297265
23569914 2 17056638738811769216
3525247 18 18119240675798172989
3918712 181 18339922610678105329
393628 194 18341612595042848549
4112364 45 17969215630149562883
437795 150 12103843467362618197
4403749 210 18335137579961797535
44802255 64 18131354150093420287
44880568 143 18265619965274687796
5718773 13 9619549161891995868
5937810 71 18272092690794551377
6201320 82 18341346556226104920
6289498 60 18261387815442976472
6327066 14 18412260597898451367
636775 72 18265612259596988880
6376802 90 18341341092927705294
6673363 416 18269551797343653839
9896288 288 18189057658390778387

> <PUBCHEM_SHAPE_MULTIPOLES>
691.01
29.67
7.17
1.39
39.68
0.56
0.21
55.88
-1.37
-11.04
-0.33
-1.16
-0.08
0.83

> <PUBCHEM_SHAPE_SELFOVERLAP>
1490.381

> <PUBCHEM_SHAPE_VOLUME>
375.1

> <PUBCHEM_COORDINATE_TYPE>
2
5
10

$$$$
