101678918
  -OEChem-08282003313D

 83 90  0     1  0  0  0  0  0999 V2000
   -2.3503    2.1333    2.3135 O   0  0  0  0  0  0  0  0  0  0  0  0
   -0.6236    3.8167   -0.8175 O   0  0  0  0  0  0  0  0  0  0  0  0
   -2.5773   -0.6949   -0.9044 O   0  0  0  0  0  0  0  0  0  0  0  0
   -0.9125   -1.7941    0.3057 O   0  0  0  0  0  0  0  0  0  0  0  0
   -7.1696    1.7069    0.8517 O   0  0  0  0  0  0  0  0  0  0  0  0
   -7.3306    0.0929   -0.9308 O   0  0  0  0  0  0  0  0  0  0  0  0
    3.4190    1.5783   -2.9733 O   0  0  0  0  0  0  0  0  0  0  0  0
    1.7828   -2.3456    0.6532 O   0  0  0  0  0  0  0  0  0  0  0  0
   -3.5748   -3.1995   -1.7646 O   0  0  0  0  0  0  0  0  0  0  0  0
   -1.4693   -5.2594   -1.8268 O   0  0  0  0  0  0  0  0  0  0  0  0
   -0.0503   -5.3327    0.6906 O   0  0  0  0  0  0  0  0  0  0  0  0
    5.3607    2.2891   -1.7357 O   0  0  0  0  0  0  0  0  0  0  0  0
    3.0726   -0.7241    1.7301 O   0  0  0  0  0  0  0  0  0  0  0  0
    4.1774   -3.5642   -0.3069 O   0  0  0  0  0  0  0  0  0  0  0  0
    6.3367   -1.6671   -0.5832 O   0  0  0  0  0  0  0  0  0  0  0  0
    6.6656   -0.1171    1.9036 O   0  0  0  0  0  0  0  0  0  0  0  0
   -1.2498    1.7924    0.2468 C   0  0  1  0  0  0  0  0  0  0  0  0
   -0.2971    2.5234    1.1556 C   0  0  1  0  0  0  0  0  0  0  0  0
   -2.2651    1.2048    1.2166 C   0  0  2  0  0  0  0  0  0  0  0  0
    0.2899    3.6252    0.2810 C   0  0  1  0  0  0  0  0  0  0  0  0
   -1.2265    3.0256    2.2571 C   0  0  0  0  0  0  0  0  0  0  0  0
   -1.7278    2.9121   -0.6684 C   0  0  0  0  0  0  0  0  0  0  0  0
   -3.6052    0.8719    0.6070 C   0  0  0  0  0  0  0  0  0  0  0  0
    1.6718    3.2832   -0.2341 C   0  0  0  0  0  0  0  0  0  0  0  0
   -3.6990   -0.0698   -0.4328 C   0  0  0  0  0  0  0  0  0  0  0  0
   -4.7480    1.5128    1.0914 C   0  0  0  0  0  0  0  0  0  0  0  0
    1.8106    2.5589   -1.4205 C   0  0  0  0  0  0  0  0  0  0  0  0
    2.8047    3.6977    0.4880 C   0  0  0  0  0  0  0  0  0  0  0  0
   -2.2122   -1.9185   -0.2667 C   0  0  2  0  0  0  0  0  0  0  0  0
   -2.2289   -3.0231   -1.3233 C   0  0  1  0  0  0  0  0  0  0  0  0
   -0.4963   -2.9809    0.9835 C   0  0  1  0  0  0  0  0  0  0  0  0
   -1.7035   -4.3423   -0.7570 C   0  0  2  0  0  0  0  0  0  0  0  0
   -4.9369   -0.3814   -1.0002 C   0  0  0  0  0  0  0  0  0  0  0  0
   -0.3844   -4.1384   -0.0116 C   0  0  2  0  0  0  0  0  0  0  0  0
   -5.9580    1.1874    0.5137 C   0  0  0  0  0  0  0  0  0  0  0  0
    3.0903    2.2706   -1.8487 C   0  0  0  0  0  0  0  0  0  0  0  0
   -6.0499    0.2658   -0.5041 C   0  0  0  0  0  0  0  0  0  0  0  0
    4.0895    3.3929    0.0321 C   0  0  0  0  0  0  0  0  0  0  0  0
    4.1991    2.6764   -1.1419 C   0  0  0  0  0  0  0  0  0  0  0  0
    0.8405   -2.6824    1.6549 C   0  0  0  0  0  0  0  0  0  0  0  0
    3.0636   -2.0521    1.2096 C   0  0  2  0  0  0  0  0  0  0  0  0
    4.1028   -2.1971    0.0969 C   0  0  1  0  0  0  0  0  0  0  0  0
   -8.0346    1.0088   -0.0671 C   0  0  0  0  0  0  0  0  0  0  0  0
    5.4902   -1.7567    0.5636 C   0  0  2  0  0  0  0  0  0  0  0  0
    5.4281   -0.3974    1.2592 C   0  0  1  0  0  0  0  0  0  0  0  0
    4.8591    1.5943   -2.8955 C   0  0  0  0  0  0  0  0  0  0  0  0
    4.3268   -0.3826    2.3098 C   0  0  0  0  0  0  0  0  0  0  0  0
   -0.7320    1.0297   -0.3443 H   0  0  0  0  0  0  0  0  0  0  0  0
    0.4533    1.8546    1.5940 H   0  0  0  0  0  0  0  0  0  0  0  0
   -1.8603    0.2884    1.6632 H   0  0  0  0  0  0  0  0  0  0  0  0
    0.3458    4.5795    0.8184 H   0  0  0  0  0  0  0  0  0  0  0  0
   -0.7291    3.0361    3.2319 H   0  0  0  0  0  0  0  0  0  0  0  0
   -1.6113    4.0331    2.0656 H   0  0  0  0  0  0  0  0  0  0  0  0
   -2.0242    2.5417   -1.6542 H   0  0  0  0  0  0  0  0  0  0  0  0
   -2.5673    3.4787   -0.2510 H   0  0  0  0  0  0  0  0  0  0  0  0
   -4.7163    2.2460    1.8892 H   0  0  0  0  0  0  0  0  0  0  0  0
    0.9570    2.2192   -1.9962 H   0  0  0  0  0  0  0  0  0  0  0  0
    2.6908    4.2583    1.4126 H   0  0  0  0  0  0  0  0  0  0  0  0
   -2.9272   -2.1504    0.5365 H   0  0  0  0  0  0  0  0  0  0  0  0
   -1.6450   -2.7223   -2.2013 H   0  0  0  0  0  0  0  0  0  0  0  0
   -1.2200   -3.2186    1.7745 H   0  0  0  0  0  0  0  0  0  0  0  0
   -2.4499   -4.8151   -0.1079 H   0  0  0  0  0  0  0  0  0  0  0  0
    0.4137   -3.9558   -0.7409 H   0  0  0  0  0  0  0  0  0  0  0  0
   -5.0284   -1.0906   -1.8139 H   0  0  0  0  0  0  0  0  0  0  0  0
    4.9656    3.7085    0.5871 H   0  0  0  0  0  0  0  0  0  0  0  0
    1.1851   -3.5512    2.2271 H   0  0  0  0  0  0  0  0  0  0  0  0
    0.7239   -1.8308    2.3357 H   0  0  0  0  0  0  0  0  0  0  0  0
    3.2807   -2.7687    2.0141 H   0  0  0  0  0  0  0  0  0  0  0  0
    3.7957   -1.6241   -0.7866 H   0  0  0  0  0  0  0  0  0  0  0  0
    5.9441   -2.5073    1.2214 H   0  0  0  0  0  0  0  0  0  0  0  0
   -8.7781    0.4463    0.5093 H   0  0  0  0  0  0  0  0  0  0  0  0
   -8.5555    1.7466   -0.6882 H   0  0  0  0  0  0  0  0  0  0  0  0
   -4.1095   -3.4723   -0.9995 H   0  0  0  0  0  0  0  0  0  0  0  0
   -0.8246   -4.8580   -2.4341 H   0  0  0  0  0  0  0  0  0  0  0  0
    5.2540    0.3858    0.5141 H   0  0  0  0  0  0  0  0  0  0  0  0
   -0.7511   -5.5041    1.3426 H   0  0  0  0  0  0  0  0  0  0  0  0
    5.2535    2.0818   -3.7944 H   0  0  0  0  0  0  0  0  0  0  0  0
    5.2202    0.5600   -2.8694 H   0  0  0  0  0  0  0  0  0  0  0  0
    4.2374    0.6194    2.7440 H   0  0  0  0  0  0  0  0  0  0  0  0
    4.5525   -1.0594    3.1437 H   0  0  0  0  0  0  0  0  0  0  0  0
    4.4219   -4.0948    0.4705 H   0  0  0  0  0  0  0  0  0  0  0  0
    5.9716   -0.9885   -1.1760 H   0  0  0  0  0  0  0  0  0  0  0  0
    6.5905    0.7609    2.3151 H   0  0  0  0  0  0  0  0  0  0  0  0
  1 19  1  0  0  0  0
  1 21  1  0  0  0  0
  2 20  1  0  0  0  0
  2 22  1  0  0  0  0
  3 25  1  0  0  0  0
  3 29  1  0  0  0  0
  4 29  1  0  0  0  0
  4 31  1  0  0  0  0
  5 35  1  0  0  0  0
  5 43  1  0  0  0  0
  6 37  1  0  0  0  0
  6 43  1  0  0  0  0
  7 36  1  0  0  0  0
  7 46  1  0  0  0  0
  8 40  1  0  0  0  0
  8 41  1  0  0  0  0
  9 30  1  0  0  0  0
  9 73  1  0  0  0  0
 10 32  1  0  0  0  0
 10 74  1  0  0  0  0
 11 34  1  0  0  0  0
 11 76  1  0  0  0  0
 12 39  1  0  0  0  0
 12 46  1  0  0  0  0
 13 41  1  0  0  0  0
 13 47  1  0  0  0  0
 14 42  1  0  0  0  0
 14 81  1  0  0  0  0
 15 44  1  0  0  0  0
 15 82  1  0  0  0  0
 16 45  1  0  0  0  0
 16 83  1  0  0  0  0
 17 18  1  0  0  0  0
 17 19  1  0  0  0  0
 17 22  1  0  0  0  0
 17 48  1  0  0  0  0
 18 20  1  0  0  0  0
 18 21  1  0  0  0  0
 18 49  1  0  0  0  0
 19 23  1  0  0  0  0
 19 50  1  0  0  0  0
 20 24  1  0  0  0  0
 20 51  1  0  0  0  0
 21 52  1  0  0  0  0
 21 53  1  0  0  0  0
 22 54  1  0  0  0  0
 22 55  1  0  0  0  0
 23 25  1  0  0  0  0
 23 26  2  0  0  0  0
 24 27  2  0  0  0  0
 24 28  1  0  0  0  0
 25 33  2  0  0  0  0
 26 35  1  0  0  0  0
 26 56  1  0  0  0  0
 27 36  1  0  0  0  0
 27 57  1  0  0  0  0
 28 38  2  0  0  0  0
 28 58  1  0  0  0  0
 29 30  1  0  0  0  0
 29 59  1  0  0  0  0
 30 32  1  0  0  0  0
 30 60  1  0  0  0  0
 31 34  1  0  0  0  0
 31 40  1  0  0  0  0
 31 61  1  0  0  0  0
 32 34  1  0  0  0  0
 32 62  1  0  0  0  0
 33 37  1  0  0  0  0
 33 64  1  0  0  0  0
 34 63  1  0  0  0  0
 35 37  2  0  0  0  0
 36 39  2  0  0  0  0
 38 39  1  0  0  0  0
 38 65  1  0  0  0  0
 40 66  1  0  0  0  0
 40 67  1  0  0  0  0
 41 42  1  0  0  0  0
 41 68  1  0  0  0  0
 42 44  1  0  0  0  0
 42 69  1  0  0  0  0
 43 71  1  0  0  0  0
 43 72  1  0  0  0  0
 44 45  1  0  0  0  0
 44 70  1  0  0  0  0
 45 47  1  0  0  0  0
 45 75  1  0  0  0  0
 46 77  1  0  0  0  0
 46 78  1  0  0  0  0
 47 79  1  0  0  0  0
 47 80  1  0  0  0  0
M  END
> <PUBCHEM_COMPOUND_CID>
101678918

> <PUBCHEM_CONFORMER_RMSD>
1.4

> <PUBCHEM_CONFORMER_DIVERSEORDER>
2
107
60
133
31
75
86
121
39
155
112
62
142
64
32
91
24
41
145
125
178
196
56
141
197
66
72
29
85
43
189
54
69
150
74
129
135
11
123
83
192
190
186
131
120
45
169
58
156
96
89
191
30
88
164
144
81
137
82
162
170
181
92
33
73
188
179
122
180
193
158
183
201
151
70
176
77
109
23
35
27
136
108
50
163
40
18
126
36
78
52
113
198
42
111
79
5
173
132
154
116
57
153
127
167
26
157
95
194
166
71
20
14
13
94
101
99
17
8
119
199
49
15
6
7
175
165
168
200
63
159
80
124
143
44
160
130
12
38
195
104
100
87
90
182
28
65
16
185
146
110
3
139
134
22
4
202
115
138
48
128
172
177
203
68
84
148
152
98
140
25
76
51
174
61
97
53
9
93
118
117
161
67
34
1
184
105
147
102
149
106
55
114
47
19
46
37
21
187
171
10
59
103

> <PUBCHEM_MMFF94_PARTIAL_CHARGES>
56
1 -0.56
10 -0.68
11 -0.68
12 -0.36
13 -0.56
14 -0.68
15 -0.68
16 -0.68
19 0.42
2 -0.56
20 0.42
21 0.28
22 0.28
23 -0.14
24 -0.14
25 0.08
26 -0.15
27 -0.15
28 -0.15
29 0.56
3 -0.36
30 0.28
31 0.28
32 0.28
33 -0.15
34 0.28
35 0.08
36 0.08
37 0.08
38 -0.15
39 0.08
4 -0.56
40 0.28
41 0.56
42 0.28
43 0.56
44 0.28
45 0.28
46 0.56
47 0.28
5 -0.36
56 0.15
57 0.15
58 0.15
6 -0.36
64 0.15
65 0.15
7 -0.36
73 0.4
74 0.4
76 0.4
8 -0.56
81 0.4
82 0.4
83 0.4
9 -0.68

> <PUBCHEM_EFFECTIVE_ROTOR_COUNT>
11.8

> <PUBCHEM_PHARMACOPHORE_FEATURES>
30
1 1 acceptor
1 10 acceptor
1 10 donor
1 11 acceptor
1 11 donor
1 12 acceptor
1 13 acceptor
1 14 acceptor
1 14 donor
1 15 acceptor
1 15 donor
1 16 acceptor
1 16 donor
1 2 acceptor
1 3 acceptor
1 4 acceptor
1 5 acceptor
1 6 acceptor
1 7 acceptor
1 8 acceptor
1 9 acceptor
1 9 donor
5 1 17 18 19 21 rings
5 2 17 18 20 22 rings
5 5 6 35 37 43 rings
5 7 12 36 39 46 rings
6 13 41 42 44 45 47 rings
6 23 25 26 33 35 37 rings
6 24 27 28 36 38 39 rings
6 4 29 30 31 32 34 rings

> <PUBCHEM_HEAVY_ATOM_COUNT>
47

> <PUBCHEM_ATOM_DEF_STEREO_COUNT>
13

> <PUBCHEM_ATOM_UDEF_STEREO_COUNT>
0

> <PUBCHEM_BOND_DEF_STEREO_COUNT>
0

> <PUBCHEM_BOND_UDEF_STEREO_COUNT>
0

> <PUBCHEM_ISOTOPIC_ATOM_COUNT>
0

> <PUBCHEM_COMPONENT_COUNT>
1

> <PUBCHEM_CACTVS_TAUTO_COUNT>
1

> <PUBCHEM_CONFORMER_ID>
060F7F4600000002

> <PUBCHEM_MMFF94_ENERGY>
151.7144

> <PUBCHEM_FEATURE_SELFOVERLAP>
153.149

> <PUBCHEM_SHAPE_FINGERPRINT>
10439779 11 18049148167057721696
1100329 8 18411693318407018627
11285246 1 17472997562473500852
1361 2 18410571747547428171
14117953 113 18339358569860298637
14143925 63 18052271604836029238
14295343 760 17203610410350506839
14705955 166 17059495106833072464
14840074 17 18337950078765257483
15001296 14 18261110820301238584
15064981 194 18191021403221693719
15274700 21 17607544702108249347
15297060 5 17918268740927478627
15351339 4 18193828473465091882
15444296 7 18334853922540365654
15927050 60 18196089065720546247
19319366 153 18040994025053213242
20737093 15 18265589088928656607
20764821 26 18264768929920051258
21583282 1 18113909298379967693
25019877 29 17559657461097528774
463206 1 18335980973593922024
6679774 75 18334004021796672219
9961470 85 18267858561599276248

> <PUBCHEM_SHAPE_MULTIPOLES>
873.33
15.38
6.91
2.16
10.12
5.74
-0.42
-3.72
-1
-2.31
-1.12
-2.29
-0.59
-4.16

> <PUBCHEM_SHAPE_SELFOVERLAP>
1930.167

> <PUBCHEM_SHAPE_VOLUME>
467

> <PUBCHEM_COORDINATE_TYPE>
2
5
10

$$$$
