56940687
  -OEChem-08282003352D

100102  0     1  0  0  0  0  0999 V2000
    7.9555    0.5036    0.0000 O   0  0  0  0  0  0  0  0  0  0  0  0
    6.5724    1.5924    0.0000 O   0  0  0  0  0  0  0  0  0  0  0  0
    6.0010   -1.8629    0.0000 O   0  0  0  0  0  0  0  0  0  0  0  0
    5.3046    0.0456    0.0000 O   0  0  0  0  0  0  0  0  0  0  0  0
    8.0196   -2.2108    0.0000 O   0  0  0  0  0  0  0  0  0  0  0  0
    4.2690   -1.8629    0.0000 O   0  0  0  0  0  0  0  0  0  0  0  0
    6.0010   -3.8629    0.0000 O   0  0  0  0  0  0  0  0  0  0  0  0
    4.2690   -4.8629    0.0000 O   0  0  0  0  0  0  0  0  0  0  0  0
    2.5369   -3.8629    0.0000 O   0  0  0  0  0  0  0  0  0  0  0  0
    3.8335   -0.4882    0.0000 O   0  0  0  0  0  0  0  0  0  0  0  0
    9.6426   -1.6059    0.0000 O   0  0  0  0  0  0  0  0  0  0  0  0
   10.6903   -4.4170    0.0000 O   0  0  0  0  0  0  0  0  0  0  0  0
    6.6438   -1.0968    0.0000 C   0  0  3  0  0  0  0  0  0  0  0  0
    6.2913   -0.1167    0.0000 C   0  0  3  0  0  0  0  0  0  0  0  0
    7.6703   -1.2738    0.0000 C   0  0  2  0  0  0  0  0  0  0  0  0
    6.9252    0.6568    0.0000 C   0  0  1  0  0  0  0  0  0  0  0  0
    8.3306   -0.4681    0.0000 C   0  0  3  0  0  0  0  0  0  0  0  0
    7.2062    2.3659    0.0000 C   0  0  2  0  0  0  0  0  0  0  0  0
    5.1350   -2.3629    0.0000 C   0  0  2  0  0  0  0  0  0  0  0  0
    6.8534    3.3015    0.0000 C   0  0  0  0  0  0  0  0  0  0  0  0
    5.1350   -3.3629    0.0000 C   0  0  3  0  0  0  0  0  0  0  0  0
    8.2014    2.4645    0.0000 C   0  0  0  0  0  0  0  0  0  0  0  0
    4.2690   -3.8629    0.0000 C   0  0  3  0  0  0  0  0  0  0  0  0
    3.4030   -3.3629    0.0000 C   0  0  2  0  0  0  0  0  0  0  0  0
    3.4030   -2.3629    0.0000 C   0  0  3  0  0  0  0  0  0  0  0  0
    9.3180   -0.6266    0.0000 C   0  0  0  0  0  0  0  0  0  0  0  0
    7.4873    4.0750    0.0000 C   0  0  0  0  0  0  0  0  0  0  0  0
    7.9215    1.6670    0.0000 C   0  0  0  0  0  0  0  0  0  0  0  0
    8.6135    3.3757    0.0000 C   0  0  0  0  0  0  0  0  0  0  0  0
    7.1344    5.0106    0.0000 C   0  0  0  0  0  0  0  0  0  0  0  0
    2.5369   -1.8629    0.0000 C   0  0  0  0  0  0  0  0  0  0  0  0
    6.1477    5.1729    0.0000 C   0  0  0  0  0  0  0  0  0  0  0  0
    4.4390    0.3075    0.0000 C   0  0  0  0  0  0  0  0  0  0  0  0
    9.0057   -2.3768    0.0000 C   0  0  0  0  0  0  0  0  0  0  0  0
    5.3352    4.5899    0.0000 C   0  0  0  0  0  0  0  0  0  0  0  0
    4.0862    1.2432    0.0000 C   0  0  0  0  0  0  0  0  0  0  0  0
    9.3550   -3.3139    0.0000 C   0  0  1  0  0  0  0  0  0  0  0  0
    5.4339    3.5948    0.0000 C   0  0  0  0  0  0  0  0  0  0  0  0
    9.6086    3.4743    0.0000 C   0  0  0  0  0  0  0  0  0  0  0  0
    4.7201    2.0166    0.0000 C   0  0  0  0  0  0  0  0  0  0  0  0
    4.6214    3.0118    0.0000 C   0  0  0  0  0  0  0  0  0  0  0  0
   10.3411   -3.4799    0.0000 C   0  0  1  0  0  0  0  0  0  0  0  0
    8.7181   -4.0848    0.0000 C   0  0  0  0  0  0  0  0  0  0  0  0
   10.9779   -2.7090    0.0000 C   0  0  0  0  0  0  0  0  0  0  0  0
    6.0334   -0.9880    0.0000 H   0  0  0  0  0  0  0  0  0  0  0  0
    5.8947   -0.5931    0.0000 H   0  0  0  0  0  0  0  0  0  0  0  0
    7.2746   -1.7510    0.0000 H   0  0  0  0  0  0  0  0  0  0  0  0
    7.4590    1.3183    0.0000 H   0  0  0  0  0  0  0  0  0  0  0  0
    8.7208    0.0136    0.0000 H   0  0  0  0  0  0  0  0  0  0  0  0
    5.1350   -1.7429    0.0000 H   0  0  0  0  0  0  0  0  0  0  0  0
    6.4494    3.7718    0.0000 H   0  0  0  0  0  0  0  0  0  0  0  0
    6.3201    2.9854    0.0000 H   0  0  0  0  0  0  0  0  0  0  0  0
    5.1350   -3.9829    0.0000 H   0  0  0  0  0  0  0  0  0  0  0  0
    8.1545    1.8463    0.0000 H   0  0  0  0  0  0  0  0  0  0  0  0
    8.8021    2.3110    0.0000 H   0  0  0  0  0  0  0  0  0  0  0  0
    3.7320   -4.1729    0.0000 H   0  0  0  0  0  0  0  0  0  0  0  0
    3.4030   -3.9829    0.0000 H   0  0  0  0  0  0  0  0  0  0  0  0
    3.4030   -1.7429    0.0000 H   0  0  0  0  0  0  0  0  0  0  0  0
    9.2197   -1.2388    0.0000 H   0  0  0  0  0  0  0  0  0  0  0  0
    9.9301   -0.7248    0.0000 H   0  0  0  0  0  0  0  0  0  0  0  0
    9.4162   -0.0144    0.0000 H   0  0  0  0  0  0  0  0  0  0  0  0
    7.8913    3.6047    0.0000 H   0  0  0  0  0  0  0  0  0  0  0  0
    8.0206    4.3912    0.0000 H   0  0  0  0  0  0  0  0  0  0  0  0
    7.4882    1.2235    0.0000 H   0  0  0  0  0  0  0  0  0  0  0  0
    8.3649    1.2337    0.0000 H   0  0  0  0  0  0  0  0  0  0  0  0
    8.3548    2.1104    0.0000 H   0  0  0  0  0  0  0  0  0  0  0  0
    8.6604    3.9939    0.0000 H   0  0  0  0  0  0  0  0  0  0  0  0
    8.0128    3.5292    0.0000 H   0  0  0  0  0  0  0  0  0  0  0  0
    7.7437    5.1254    0.0000 H   0  0  0  0  0  0  0  0  0  0  0  0
    7.1272    5.6306    0.0000 H   0  0  0  0  0  0  0  0  0  0  0  0
    2.8469   -1.3260    0.0000 H   0  0  0  0  0  0  0  0  0  0  0  0
    2.0000   -1.5529    0.0000 H   0  0  0  0  0  0  0  0  0  0  0  0
    2.2269   -2.3998    0.0000 H   0  0  0  0  0  0  0  0  0  0  0  0
    6.4032    5.7378    0.0000 H   0  0  0  0  0  0  0  0  0  0  0  0
    5.6681    5.5659    0.0000 H   0  0  0  0  0  0  0  0  0  0  0  0
    6.0010   -4.4829    0.0000 H   0  0  0  0  0  0  0  0  0  0  0  0
    5.0667    5.1487    0.0000 H   0  0  0  0  0  0  0  0  0  0  0  0
    4.7382    4.4225    0.0000 H   0  0  0  0  0  0  0  0  0  0  0  0
    3.6822    1.7135    0.0000 H   0  0  0  0  0  0  0  0  0  0  0  0
    3.5529    0.9270    0.0000 H   0  0  0  0  0  0  0  0  0  0  0  0
    9.5715   -3.8948    0.0000 H   0  0  0  0  0  0  0  0  0  0  0  0
    3.7320   -5.1729    0.0000 H   0  0  0  0  0  0  0  0  0  0  0  0
    5.7024    3.0359    0.0000 H   0  0  0  0  0  0  0  0  0  0  0  0
    6.0308    3.7621    0.0000 H   0  0  0  0  0  0  0  0  0  0  0  0
    9.6698    2.8574    0.0000 H   0  0  0  0  0  0  0  0  0  0  0  0
   10.2256    3.5355    0.0000 H   0  0  0  0  0  0  0  0  0  0  0  0
    9.5474    4.0913    0.0000 H   0  0  0  0  0  0  0  0  0  0  0  0
    5.0815    1.5129    0.0000 H   0  0  0  0  0  0  0  0  0  0  0  0
    5.3002    2.2354    0.0000 H   0  0  0  0  0  0  0  0  0  0  0  0
    2.0000   -3.5529    0.0000 H   0  0  0  0  0  0  0  0  0  0  0  0
    4.3529    3.5706    0.0000 H   0  0  0  0  0  0  0  0  0  0  0  0
    4.0244    2.8444    0.0000 H   0  0  0  0  0  0  0  0  0  0  0  0
   10.9525   -3.5829    0.0000 H   0  0  0  0  0  0  0  0  0  0  0  0
    8.2401   -3.6900    0.0000 H   0  0  0  0  0  0  0  0  0  0  0  0
    8.3232   -4.5628    0.0000 H   0  0  0  0  0  0  0  0  0  0  0  0
    9.1961   -4.4797    0.0000 H   0  0  0  0  0  0  0  0  0  0  0  0
   11.4559   -3.1038    0.0000 H   0  0  0  0  0  0  0  0  0  0  0  0
   11.3728   -2.2309    0.0000 H   0  0  0  0  0  0  0  0  0  0  0  0
   10.4999   -2.3141    0.0000 H   0  0  0  0  0  0  0  0  0  0  0  0
   11.3017   -4.5199    0.0000 H   0  0  0  0  0  0  0  0  0  0  0  0
  1 16  1  0  0  0  0
  1 17  1  0  0  0  0
  2 16  1  0  0  0  0
  2 18  1  0  0  0  0
  3 13  1  0  0  0  0
 19  3  1  1  0  0  0
  4 14  1  0  0  0  0
  4 33  1  0  0  0  0
 15  5  1  6  0  0  0
  5 34  1  0  0  0  0
  6 19  1  0  0  0  0
  6 25  1  0  0  0  0
  7 21  1  0  0  0  0
  7 76  1  0  0  0  0
  8 23  1  0  0  0  0
  8 82  1  0  0  0  0
 24  9  1  1  0  0  0
  9 90  1  0  0  0  0
 10 33  2  0  0  0  0
 11 34  2  0  0  0  0
 42 12  1  1  0  0  0
 12100  1  0  0  0  0
 13 14  1  0  0  0  0
 13 15  1  0  0  0  0
 13 45  1  0  0  0  0
 14 16  1  0  0  0  0
 14 46  1  0  0  0  0
 15 17  1  0  0  0  0
 15 47  1  0  0  0  0
 16 48  1  1  0  0  0
 17 26  1  0  0  0  0
 17 49  1  0  0  0  0
 18 20  1  0  0  0  0
 18 22  1  0  0  0  0
 18 28  1  1  0  0  0
 19 21  1  0  0  0  0
 19 50  1  0  0  0  0
 20 27  1  0  0  0  0
 20 51  1  0  0  0  0
 20 52  1  0  0  0  0
 21 23  1  0  0  0  0
 21 53  1  0  0  0  0
 22 29  1  0  0  0  0
 22 54  1  0  0  0  0
 22 55  1  0  0  0  0
 23 24  1  0  0  0  0
 23 56  1  0  0  0  0
 24 25  1  0  0  0  0
 24 57  1  0  0  0  0
 25 31  1  0  0  0  0
 25 58  1  0  0  0  0
 26 59  1  0  0  0  0
 26 60  1  0  0  0  0
 26 61  1  0  0  0  0
 27 30  1  0  0  0  0
 27 62  1  0  0  0  0
 27 63  1  0  0  0  0
 28 64  1  0  0  0  0
 28 65  1  0  0  0  0
 28 66  1  0  0  0  0
 29 39  1  0  0  0  0
 29 67  1  0  0  0  0
 29 68  1  0  0  0  0
 30 32  1  0  0  0  0
 30 69  1  0  0  0  0
 30 70  1  0  0  0  0
 31 71  1  0  0  0  0
 31 72  1  0  0  0  0
 31 73  1  0  0  0  0
 32 35  1  0  0  0  0
 32 74  1  0  0  0  0
 32 75  1  0  0  0  0
 33 36  1  0  0  0  0
 34 37  1  0  0  0  0
 35 38  1  0  0  0  0
 35 77  1  0  0  0  0
 35 78  1  0  0  0  0
 36 40  1  0  0  0  0
 36 79  1  0  0  0  0
 36 80  1  0  0  0  0
 37 42  1  0  0  0  0
 37 43  1  1  0  0  0
 37 81  1  0  0  0  0
 38 41  1  0  0  0  0
 38 83  1  0  0  0  0
 38 84  1  0  0  0  0
 39 85  1  0  0  0  0
 39 86  1  0  0  0  0
 39 87  1  0  0  0  0
 40 41  1  0  0  0  0
 40 88  1  0  0  0  0
 40 89  1  0  0  0  0
 41 91  1  0  0  0  0
 41 92  1  0  0  0  0
 42 44  1  0  0  0  0
 42 93  1  0  0  0  0
 43 94  1  0  0  0  0
 43 95  1  0  0  0  0
 43 96  1  0  0  0  0
 44 97  1  0  0  0  0
 44 98  1  0  0  0  0
 44 99  1  0  0  0  0
M  END
> <PUBCHEM_COMPOUND_CID>
56940687

> <PUBCHEM_COMPOUND_CANONICALIZED>
1

> <PUBCHEM_CACTVS_COMPLEXITY>
903

> <PUBCHEM_CACTVS_HBOND_ACCEPTOR>
12

> <PUBCHEM_CACTVS_HBOND_DONOR>
4

> <PUBCHEM_CACTVS_ROTATABLE_BOND>
8

> <PUBCHEM_CACTVS_SUBSKEYS>
AAADcfB8PAAAAAAAAAAAAAAAAAAAAAAAAAAkSAAAAAAAAAAAAAAAGgAACAAADVSwgAMCCAAABgAIAACQCAAAAAAAAAAAAAEAAAAREBYAAAAiQAAFIAAHAAHI6OyOAAAAAAAAAAAAAAAAAAAAAAAAAAAAAA==

> <PUBCHEM_IUPAC_OPENEYE_NAME>
[(13S,15S,18S)-13,17-dimethyl-3-oxo-13-propyl-19-[(2S,5R)-3,4,5-trihydroxy-6-methyl-tetrahydropyran-2-yl]oxy-2,14,16-trioxabicyclo[13.4.0]nonadecan-18-yl] (2R,3R)-3-hydroxy-2-methyl-butanoate

> <PUBCHEM_IUPAC_CAS_NAME>
(2R,3R)-3-hydroxy-2-methylbutanoic acid [(13S,15S,18S)-13,17-dimethyl-3-oxo-13-propyl-19-[[(2S,5R)-3,4,5-trihydroxy-6-methyl-2-oxanyl]oxy]-2,14,16-trioxabicyclo[13.4.0]nonadecan-18-yl] ester

> <PUBCHEM_IUPAC_NAME_MARKUP>
[(13<I>S</I>,15<I>S</I>,18<I>S</I>)-13,17-dimethyl-3-oxo-13-propyl-19-[(2<I>S</I>,5<I>R</I>)-3,4,5-trihydroxy-6-methyloxan-2-yl]oxy-2,14,16-trioxabicyclo[13.4.0]nonadecan-18-yl] (2<I>R</I>,3<I>R</I>)-3-hydroxy-2-methylbutanoate

> <PUBCHEM_IUPAC_NAME>
[(13S,15S,18S)-13,17-dimethyl-3-oxo-13-propyl-19-[(2S,5R)-3,4,5-trihydroxy-6-methyloxan-2-yl]oxy-2,14,16-trioxabicyclo[13.4.0]nonadecan-18-yl] (2R,3R)-3-hydroxy-2-methylbutanoate

> <PUBCHEM_IUPAC_SYSTEMATIC_NAME>
[(13S,15S,18S)-13,17-dimethyl-19-[(2S,5R)-6-methyl-3,4,5-tris(oxidanyl)oxan-2-yl]oxy-3-oxidanylidene-13-propyl-2,14,16-trioxabicyclo[13.4.0]nonadecan-18-yl] (2R,3R)-2-methyl-3-oxidanyl-butanoate

> <PUBCHEM_IUPAC_TRADITIONAL_NAME>
(2R,3R)-3-hydroxy-2-methyl-butyric acid [(13S,15S,18S)-3-keto-13,17-dimethyl-13-propyl-19-[(2S,5R)-3,4,5-trihydroxy-6-methyl-tetrahydropyran-2-yl]oxy-2,14,16-trioxabicyclo[13.4.0]nonadecan-18-yl] ester

> <PUBCHEM_IUPAC_INCHI>
InChI=1S/C32H56O12/c1-7-16-32(6)17-14-12-10-8-9-11-13-15-22(34)41-28-27(43-30-25(37)24(36)23(35)20(4)39-30)26(21(5)40-31(28)44-32)42-29(38)18(2)19(3)33/h18-21,23-28,30-31,33,35-37H,7-17H2,1-6H3/t18-,19-,20?,21?,23+,24?,25?,26+,27?,28?,30+,31+,32+/m1/s1

> <PUBCHEM_IUPAC_INCHIKEY>
GITOCQGOURWXPL-QNGBORIKSA-N

> <PUBCHEM_XLOGP3_AA>
3.7

> <PUBCHEM_EXACT_MASS>
632.377177

> <PUBCHEM_MOLECULAR_FORMULA>
C32H56O12

> <PUBCHEM_MOLECULAR_WEIGHT>
632.8

> <PUBCHEM_OPENEYE_CAN_SMILES>
CCCC1(CCCCCCCCCC(=O)OC2C(C(C(OC2O1)C)OC(=O)C(C)C(C)O)OC3C(C(C(C(O3)C)O)O)O)C

> <PUBCHEM_OPENEYE_ISO_SMILES>
CCC[C@]1(CCCCCCCCCC(=O)OC2[C@H](O1)OC([C@@H](C2O[C@H]3C(C([C@H](C(O3)C)O)O)O)OC(=O)[C@H](C)[C@@H](C)O)C)C

> <PUBCHEM_CACTVS_TPSA>
170

> <PUBCHEM_MONOISOTOPIC_WEIGHT>
632.377177

> <PUBCHEM_TOTAL_CHARGE>
0

> <PUBCHEM_HEAVY_ATOM_COUNT>
44

> <PUBCHEM_ATOM_DEF_STEREO_COUNT>
7

> <PUBCHEM_ATOM_UDEF_STEREO_COUNT>
6

> <PUBCHEM_BOND_DEF_STEREO_COUNT>
0

> <PUBCHEM_BOND_UDEF_STEREO_COUNT>
0

> <PUBCHEM_ISOTOPIC_ATOM_COUNT>
0

> <PUBCHEM_COMPONENT_COUNT>
1

> <PUBCHEM_CACTVS_TAUTO_COUNT>
-1

> <PUBCHEM_COORDINATE_TYPE>
1
5
255

> <PUBCHEM_BONDANNOTATIONS>
42  12  5
16  48  5
17  26  3
18  28  5
25  31  3
13  3  3
19  3  5
37  43  5
14  4  3
15  5  6
21  7  3
23  8  3
24  9  5

$$$$
