173768
  -OEChem-09172005493D

103108  0     1  0  0  0  0  0999 V2000
    5.0237    0.1105    0.6861 O   0  0  0  0  0  0  0  0  0  0  0  0
    3.1664   -1.5587    1.4365 O   0  0  0  0  0  0  0  0  0  0  0  0
    4.0079    3.7972   -1.4294 O   0  0  0  0  0  0  0  0  0  0  0  0
   -6.6325    2.4027   -0.8451 O   0  0  0  0  0  0  0  0  0  0  0  0
   -5.4885    1.9038    1.0623 O   0  0  0  0  0  0  0  0  0  0  0  0
    5.2798   -1.8641   -0.5336 O   0  0  0  0  0  0  0  0  0  0  0  0
   -5.1130   -3.8860    0.6881 O   0  0  0  0  0  0  0  0  0  0  0  0
   -6.2700   -3.3757   -1.2452 O   0  0  0  0  0  0  0  0  0  0  0  0
    7.8619    0.3950    0.7570 O   0  0  0  0  0  0  0  0  0  0  0  0
    9.2213   -2.1475    0.5971 O   0  0  0  0  0  0  0  0  0  0  0  0
    8.2060   -3.7124   -1.6864 O   0  0  0  0  0  0  0  0  0  0  0  0
   -1.0736    1.9724   -0.2802 C   0  0  2  0  0  0  0  0  0  0  0  0
    1.1832    1.6891    1.2283 C   0  0  2  0  0  0  0  0  0  0  0  0
   -0.2759    1.1831    0.8259 C   0  0  1  0  0  0  0  0  0  0  0  0
   -2.2468    0.9791   -0.8397 C   0  0  1  0  0  0  0  0  0  0  0  0
    1.9738    2.2504   -0.0306 C   0  0  1  0  0  0  0  0  0  0  0  0
   -0.1280    2.4522   -1.4114 C   0  0  0  0  0  0  0  0  0  0  0  0
    3.5192    1.9105   -0.0482 C   0  0  1  0  0  0  0  0  0  0  0  0
    1.2719    1.8575   -1.3504 C   0  0  0  0  0  0  0  0  0  0  0  0
   -3.0206    0.3064    0.3258 C   0  0  0  0  0  0  0  0  0  0  0  0
    1.9570    0.4766    1.8570 C   0  0  0  0  0  0  0  0  0  0  0  0
   -1.2195    0.8932    2.0139 C   0  0  0  0  0  0  0  0  0  0  0  0
   -4.3262   -0.4204   -0.0506 C   0  0  2  0  0  0  0  0  0  0  0  0
   -3.2489    1.7745   -1.7374 C   0  0  0  0  0  0  0  0  0  0  0  0
   -5.2726    0.4706   -0.8912 C   0  0  1  0  0  0  0  0  0  0  0  0
    3.7626    0.3735    0.0669 C   0  0  2  0  0  0  0  0  0  0  0  0
   -1.7148    3.2673    0.3099 C   0  0  0  0  0  0  0  0  0  0  0  0
    2.6548   -0.3840    0.8123 C   0  0  1  0  0  0  0  0  0  0  0  0
   -4.5256    1.0205   -2.1210 C   0  0  0  0  0  0  0  0  0  0  0  0
    1.1201    2.7743    2.3317 C   0  0  0  0  0  0  0  0  0  0  0  0
   -2.5402    0.3220    1.5856 C   0  0  0  0  0  0  0  0  0  0  0  0
   -1.6413   -0.1699   -1.7035 C   0  0  0  0  0  0  0  0  0  0  0  0
   -5.0914   -1.1028    1.1137 C   0  0  0  0  0  0  0  0  0  0  0  0
   -6.4967   -0.3376   -1.3713 C   0  0  0  0  0  0  0  0  0  0  0  0
    4.1934    2.4041   -1.3580 C   0  0  0  0  0  0  0  0  0  0  0  0
    4.2518    2.6972    1.0743 C   0  0  0  0  0  0  0  0  0  0  0  0
   -6.3395   -1.8835    0.6560 C   0  0  2  0  0  0  0  0  0  0  0  0
   -7.2504   -1.0194   -0.2269 C   0  0  0  0  0  0  0  0  0  0  0  0
   -5.7872    1.6535   -0.0960 C   0  0  0  0  0  0  0  0  0  0  0  0
   -7.1210   -2.3779    1.8818 C   0  0  0  0  0  0  0  0  0  0  0  0
   -5.9214   -3.1217   -0.1002 C   0  0  0  0  0  0  0  0  0  0  0  0
    5.8851   -0.6203   -0.1856 C   0  0  2  0  0  0  0  0  0  0  0  0
    7.2059   -0.8557    0.5489 C   0  0  1  0  0  0  0  0  0  0  0  0
    8.1403   -1.7618   -0.2526 C   0  0  2  0  0  0  0  0  0  0  0  0
    6.0940   -2.6303   -1.4143 C   0  0  0  0  0  0  0  0  0  0  0  0
    7.4062   -3.0094   -0.7424 C   0  0  1  0  0  0  0  0  0  0  0  0
   -4.6409   -5.0984    0.0920 C   0  0  0  0  0  0  0  0  0  0  0  0
   -0.0772    0.1972    0.3912 H   0  0  0  0  0  0  0  0  0  0  0  0
    1.8983    3.3473    0.0152 H   0  0  0  0  0  0  0  0  0  0  0  0
   -0.0123    3.5447   -1.3729 H   0  0  0  0  0  0  0  0  0  0  0  0
   -0.5515    2.2688   -2.4029 H   0  0  0  0  0  0  0  0  0  0  0  0
    1.7994    2.2676   -2.2152 H   0  0  0  0  0  0  0  0  0  0  0  0
    1.2435    0.7730   -1.4903 H   0  0  0  0  0  0  0  0  0  0  0  0
    2.6984    0.8079    2.5933 H   0  0  0  0  0  0  0  0  0  0  0  0
    1.2871   -0.1533    2.4516 H   0  0  0  0  0  0  0  0  0  0  0  0
   -0.7597    0.1705    2.6949 H   0  0  0  0  0  0  0  0  0  0  0  0
   -1.4171    1.7943    2.6036 H   0  0  0  0  0  0  0  0  0  0  0  0
   -4.0083   -1.2500   -0.6982 H   0  0  0  0  0  0  0  0  0  0  0  0
   -3.5798    2.6886   -1.2375 H   0  0  0  0  0  0  0  0  0  0  0  0
   -2.7537    2.0990   -2.6602 H   0  0  0  0  0  0  0  0  0  0  0  0
    3.7514   -0.0348   -0.9545 H   0  0  0  0  0  0  0  0  0  0  0  0
   -2.5388    3.0646    0.9995 H   0  0  0  0  0  0  0  0  0  0  0  0
   -0.9845    3.8789    0.8380 H   0  0  0  0  0  0  0  0  0  0  0  0
   -2.1076    3.9179   -0.4799 H   0  0  0  0  0  0  0  0  0  0  0  0
    1.9153   -0.7291    0.0822 H   0  0  0  0  0  0  0  0  0  0  0  0
   -4.2699    0.1981   -2.8003 H   0  0  0  0  0  0  0  0  0  0  0  0
   -5.1633    1.6929   -2.7092 H   0  0  0  0  0  0  0  0  0  0  0  0
    2.1170    3.0817    2.6579 H   0  0  0  0  0  0  0  0  0  0  0  0
    0.6103    2.4142    3.2306 H   0  0  0  0  0  0  0  0  0  0  0  0
    0.6229    3.6838    1.9962 H   0  0  0  0  0  0  0  0  0  0  0  0
   -3.1005   -0.1328    2.3962 H   0  0  0  0  0  0  0  0  0  0  0  0
   -2.4104   -0.8223   -2.1284 H   0  0  0  0  0  0  0  0  0  0  0  0
   -0.9804   -0.8252   -1.1289 H   0  0  0  0  0  0  0  0  0  0  0  0
   -1.0727    0.2094   -2.5569 H   0  0  0  0  0  0  0  0  0  0  0  0
   -5.3959   -0.3605    1.8608 H   0  0  0  0  0  0  0  0  0  0  0  0
   -4.4056   -1.7796    1.6402 H   0  0  0  0  0  0  0  0  0  0  0  0
   -7.2051    0.2951   -1.9212 H   0  0  0  0  0  0  0  0  0  0  0  0
   -6.1678   -1.0898   -2.0979 H   0  0  0  0  0  0  0  0  0  0  0  0
    3.8045    1.9224   -2.2589 H   0  0  0  0  0  0  0  0  0  0  0  0
    5.2719    2.2094   -1.3382 H   0  0  0  0  0  0  0  0  0  0  0  0
    4.0889    2.2712    2.0654 H   0  0  0  0  0  0  0  0  0  0  0  0
    3.9353    3.7457    1.1108 H   0  0  0  0  0  0  0  0  0  0  0  0
    5.3385    2.6952    0.9233 H   0  0  0  0  0  0  0  0  0  0  0  0
   -8.0685   -1.6183   -0.6480 H   0  0  0  0  0  0  0  0  0  0  0  0
   -7.7314   -0.2473    0.3878 H   0  0  0  0  0  0  0  0  0  0  0  0
    2.4172   -2.0297    1.8393 H   0  0  0  0  0  0  0  0  0  0  0  0
   -7.5379   -1.5361    2.4465 H   0  0  0  0  0  0  0  0  0  0  0  0
   -7.9551   -3.0259    1.5871 H   0  0  0  0  0  0  0  0  0  0  0  0
   -6.4914   -2.9493    2.5735 H   0  0  0  0  0  0  0  0  0  0  0  0
    6.0556   -0.0211   -1.0899 H   0  0  0  0  0  0  0  0  0  0  0  0
    4.4417    4.1058   -2.2429 H   0  0  0  0  0  0  0  0  0  0  0  0
   -6.9776    3.1738   -0.3467 H   0  0  0  0  0  0  0  0  0  0  0  0
    7.0174   -1.2808    1.5421 H   0  0  0  0  0  0  0  0  0  0  0  0
    8.5898   -1.2221   -1.0944 H   0  0  0  0  0  0  0  0  0  0  0  0
    5.5388   -3.5339   -1.6894 H   0  0  0  0  0  0  0  0  0  0  0  0
    6.2614   -2.0772   -2.3473 H   0  0  0  0  0  0  0  0  0  0  0  0
    7.2189   -3.6808    0.1045 H   0  0  0  0  0  0  0  0  0  0  0  0
    8.0081    0.8064   -0.1119 H   0  0  0  0  0  0  0  0  0  0  0  0
   -5.4836   -5.7473   -0.1647 H   0  0  0  0  0  0  0  0  0  0  0  0
   -4.0403   -4.8746   -0.7948 H   0  0  0  0  0  0  0  0  0  0  0  0
   -4.0108   -5.6132    0.8221 H   0  0  0  0  0  0  0  0  0  0  0  0
    8.8543   -2.6484    1.3454 H   0  0  0  0  0  0  0  0  0  0  0  0
    7.7113   -4.5037   -1.9600 H   0  0  0  0  0  0  0  0  0  0  0  0
  1 26  1  0  0  0  0
  1 42  1  0  0  0  0
  2 28  1  0  0  0  0
  2 86  1  0  0  0  0
  3 35  1  0  0  0  0
  3 91  1  0  0  0  0
  4 39  1  0  0  0  0
  4 92  1  0  0  0  0
  5 39  2  0  0  0  0
  6 42  1  0  0  0  0
  6 45  1  0  0  0  0
  7 41  1  0  0  0  0
  7 47  1  0  0  0  0
  8 41  2  0  0  0  0
  9 43  1  0  0  0  0
  9 98  1  0  0  0  0
 10 44  1  0  0  0  0
 10102  1  0  0  0  0
 11 46  1  0  0  0  0
 11103  1  0  0  0  0
 12 14  1  0  0  0  0
 12 15  1  0  0  0  0
 12 17  1  0  0  0  0
 12 27  1  0  0  0  0
 13 14  1  0  0  0  0
 13 16  1  0  0  0  0
 13 21  1  0  0  0  0
 13 30  1  0  0  0  0
 14 22  1  0  0  0  0
 14 48  1  0  0  0  0
 15 20  1  0  0  0  0
 15 24  1  0  0  0  0
 15 32  1  0  0  0  0
 16 18  1  0  0  0  0
 16 19  1  0  0  0  0
 16 49  1  0  0  0  0
 17 19  1  0  0  0  0
 17 50  1  0  0  0  0
 17 51  1  0  0  0  0
 18 26  1  0  0  0  0
 18 35  1  0  0  0  0
 18 36  1  0  0  0  0
 19 52  1  0  0  0  0
 19 53  1  0  0  0  0
 20 23  1  0  0  0  0
 20 31  2  0  0  0  0
 21 28  1  0  0  0  0
 21 54  1  0  0  0  0
 21 55  1  0  0  0  0
 22 31  1  0  0  0  0
 22 56  1  0  0  0  0
 22 57  1  0  0  0  0
 23 25  1  0  0  0  0
 23 33  1  0  0  0  0
 23 58  1  0  0  0  0
 24 29  1  0  0  0  0
 24 59  1  0  0  0  0
 24 60  1  0  0  0  0
 25 29  1  0  0  0  0
 25 34  1  0  0  0  0
 25 39  1  0  0  0  0
 26 28  1  0  0  0  0
 26 61  1  0  0  0  0
 27 62  1  0  0  0  0
 27 63  1  0  0  0  0
 27 64  1  0  0  0  0
 28 65  1  0  0  0  0
 29 66  1  0  0  0  0
 29 67  1  0  0  0  0
 30 68  1  0  0  0  0
 30 69  1  0  0  0  0
 30 70  1  0  0  0  0
 31 71  1  0  0  0  0
 32 72  1  0  0  0  0
 32 73  1  0  0  0  0
 32 74  1  0  0  0  0
 33 37  1  0  0  0  0
 33 75  1  0  0  0  0
 33 76  1  0  0  0  0
 34 38  1  0  0  0  0
 34 77  1  0  0  0  0
 34 78  1  0  0  0  0
 35 79  1  0  0  0  0
 35 80  1  0  0  0  0
 36 81  1  0  0  0  0
 36 82  1  0  0  0  0
 36 83  1  0  0  0  0
 37 38  1  0  0  0  0
 37 40  1  0  0  0  0
 37 41  1  0  0  0  0
 38 84  1  0  0  0  0
 38 85  1  0  0  0  0
 40 87  1  0  0  0  0
 40 88  1  0  0  0  0
 40 89  1  0  0  0  0
 42 43  1  0  0  0  0
 42 90  1  0  0  0  0
 43 44  1  0  0  0  0
 43 93  1  0  0  0  0
 44 46  1  0  0  0  0
 44 94  1  0  0  0  0
 45 46  1  0  0  0  0
 45 95  1  0  0  0  0
 45 96  1  0  0  0  0
 46 97  1  0  0  0  0
 47 99  1  0  0  0  0
 47100  1  0  0  0  0
 47101  1  0  0  0  0
M  END
> <PUBCHEM_COMPOUND_CID>
173768

> <PUBCHEM_CONFORMER_RMSD>
1.2

> <PUBCHEM_CONFORMER_DIVERSEORDER>
1
4
6
5
3
2

> <PUBCHEM_MMFF94_PARTIAL_CHARGES>
36
1 -0.56
10 -0.68
102 0.4
103 0.4
11 -0.68
15 0.14
2 -0.68
20 -0.28
22 0.14
23 0.14
25 0.06
26 0.28
28 0.28
3 -0.68
31 -0.29
35 0.28
37 0.06
39 0.66
4 -0.65
41 0.66
42 0.56
43 0.28
44 0.28
45 0.28
46 0.28
47 0.28
5 -0.57
6 -0.56
7 -0.43
71 0.15
8 -0.57
86 0.4
9 -0.68
91 0.4
92 0.5
98 0.4

> <PUBCHEM_EFFECTIVE_ROTOR_COUNT>
9.8

> <PUBCHEM_PHARMACOPHORE_FEATURES>
22
1 1 acceptor
1 10 acceptor
1 10 donor
1 11 acceptor
1 11 donor
1 2 acceptor
1 2 donor
1 3 acceptor
1 3 donor
1 4 acceptor
1 5 acceptor
1 6 acceptor
1 8 acceptor
1 9 acceptor
1 9 donor
3 4 5 39 anion
6 12 13 14 16 17 19 rings
6 12 14 15 20 22 31 rings
6 13 16 18 21 26 28 rings
6 15 20 23 24 25 29 rings
6 23 25 33 34 37 38 rings
6 6 42 43 44 45 46 rings

> <PUBCHEM_HEAVY_ATOM_COUNT>
47

> <PUBCHEM_ATOM_DEF_STEREO_COUNT>
14

> <PUBCHEM_ATOM_UDEF_STEREO_COUNT>
1

> <PUBCHEM_BOND_DEF_STEREO_COUNT>
0

> <PUBCHEM_BOND_UDEF_STEREO_COUNT>
0

> <PUBCHEM_ISOTOPIC_ATOM_COUNT>
0

> <PUBCHEM_COMPONENT_COUNT>
1

> <PUBCHEM_CACTVS_TAUTO_COUNT>
1

> <PUBCHEM_CONFORMER_ID>
0002A6C800000001

> <PUBCHEM_MMFF94_ENERGY>
203.985

> <PUBCHEM_FEATURE_SELFOVERLAP>
111.873

> <PUBCHEM_SHAPE_FINGERPRINT>
11135609 12 18342171189967210878
11135609 99 18341612646502672382
117089 54 18338519741484264327
12013929 112 18042396925218966109
12013929 27 18334859471606925223
12539747 164 17982460300258169280
12633046 712 18342730862708195733
13008946 119 17695621146014514064
13383668 90 17676486095182106919
1361 4 18193840568415042799
13690498 29 17749381577684299263
13782708 43 18341051925520940479
13811026 1 18411417306291111303
13911987 19 13190334678352466465
14068700 675 18333733507354823792
15131766 46 7853280983273206186
15183329 4 17385718088816158512
15230672 131 18263357010850946067
15352257 5 18339361976080795295
15361156 5 17458633315257059557
15510800 12 18413109433797108022
15705408 1 17023466481370136509
19246450 95 16414926236444288931
19303781 99 18341320125060227630
19841028 212 18340767045210612466
20105231 36 17748832943268677099
2026 5 18410291389231481147
208703 8 18343581811719342010
21814621 53 18272080604719813361
23559900 14 18260821609587638272
25269216 80 16153434965426151715
3383291 50 18342736312747576002
3504750 166 18411136961834876229
4149490 64 18409442618954261352
4169191 19 10881394327339747527
4258327 124 11818995214430959009
4461854 278 17203325603450398750
44880168 125 18340766057241696083
44880568 143 17967813800364707716
54039377 194 18341615906599017430
58083652 198 16271630244059756153
6691757 9 15195275434934215005
9831232 110 18408042892832260974
999808 66 18272651238153046119

> <PUBCHEM_SHAPE_MULTIPOLES>
902.68
24.38
4.89
1.88
23.46
3.95
-0.12
25.21
2.81
-0.25
0.72
-0.57
-0.53
2.59

> <PUBCHEM_SHAPE_SELFOVERLAP>
1925.8

> <PUBCHEM_SHAPE_VOLUME>
490

> <PUBCHEM_COORDINATE_TYPE>
2
5
10

$$$$
