21893726
  -OEChem-09172005322D

  8  6  0     0  0  0  0  0  0999 V2000
    0.4699    0.0000    0.0000 Cl  0  0  0  0  0  0  0  0  0  0  0  0
    0.5369    2.5369    0.0000 O   0  0  0  0  0  0  0  0  0  0  0  0
    1.4030    3.0369    0.0000 C   0  0  0  0  0  0  0  0  0  0  0  0
    1.7130    2.5000    0.0000 H   0  0  0  0  0  0  0  0  0  0  0  0
    1.9399    3.3469    0.0000 H   0  0  0  0  0  0  0  0  0  0  0  0
    1.0930    3.5739    0.0000 H   0  0  0  0  0  0  0  0  0  0  0  0
    0.0000    2.8469    0.0000 H   0  0  0  0  0  0  0  0  0  0  0  0
    1.4700    0.0000    0.0000 H   0  0  0  0  0  0  0  0  0  0  0  0
  1  8  1  0  0  0  0
  2  3  1  0  0  0  0
  2  7  1  0  0  0  0
  3  4  1  0  0  0  0
  3  5  1  0  0  0  0
  3  6  1  0  0  0  0
M  END
> <PUBCHEM_COMPOUND_CID>
21893726

> <PUBCHEM_COMPOUND_CANONICALIZED>
1

> <PUBCHEM_CACTVS_COMPLEXITY>
2

> <PUBCHEM_CACTVS_HBOND_ACCEPTOR>
1

> <PUBCHEM_CACTVS_HBOND_DONOR>
2

> <PUBCHEM_CACTVS_ROTATABLE_BOND>
0

> <PUBCHEM_CACTVS_SUBSKEYS>
AAADcYAAIAAEAAAAAAAAAAAAAAAAAAAAAAAAAAAAAAAAAAAAAAAAEgAACAAAAAAAAAICAAAAAgAAAAAAAAAAAAAAAAAAAAAAAAAAEAAAAAAAAAAAAAAAAAAAAAAAAAAAAAAAAAAAAAAAAAAAAAAAAAAAAA==

> <PUBCHEM_IUPAC_OPENEYE_NAME>
methanol;hydrochloride

> <PUBCHEM_IUPAC_CAS_NAME>
methanol;hydrochloride

> <PUBCHEM_IUPAC_NAME_MARKUP>
methanol;hydrochloride

> <PUBCHEM_IUPAC_NAME>
methanol;hydrochloride

> <PUBCHEM_IUPAC_SYSTEMATIC_NAME>
methanol;hydrochloride

> <PUBCHEM_IUPAC_TRADITIONAL_NAME>
methanol;hydrochloride

> <PUBCHEM_IUPAC_INCHI>
InChI=1S/CH4O.ClH/c1-2;/h2H,1H3;1H

> <PUBCHEM_IUPAC_INCHIKEY>
FUKUFMFMCZIRNT-UHFFFAOYSA-N

> <PUBCHEM_EXACT_MASS>
68.002893

> <PUBCHEM_MOLECULAR_FORMULA>
CH5ClO

> <PUBCHEM_MOLECULAR_WEIGHT>
68.5

> <PUBCHEM_OPENEYE_CAN_SMILES>
CO.Cl

> <PUBCHEM_OPENEYE_ISO_SMILES>
CO.Cl

> <PUBCHEM_CACTVS_TPSA>
20.2

> <PUBCHEM_MONOISOTOPIC_WEIGHT>
68.002893

> <PUBCHEM_TOTAL_CHARGE>
0

> <PUBCHEM_HEAVY_ATOM_COUNT>
3

> <PUBCHEM_ATOM_DEF_STEREO_COUNT>
0

> <PUBCHEM_ATOM_UDEF_STEREO_COUNT>
0

> <PUBCHEM_BOND_DEF_STEREO_COUNT>
0

> <PUBCHEM_BOND_UDEF_STEREO_COUNT>
0

> <PUBCHEM_ISOTOPIC_ATOM_COUNT>
0

> <PUBCHEM_COMPONENT_COUNT>
2

> <PUBCHEM_CACTVS_TAUTO_COUNT>
-1

> <PUBCHEM_COORDINATE_TYPE>
1
5
255

$$$$
