14531501
  -OEChem-09112002463D

 62 64  0     1  0  0  0  0  0999 V2000
   -1.4209   -1.3211   -0.7481 O   0  0  0  0  0  0  0  0  0  0  0  0
    2.7900    0.7819   -1.9170 O   0  0  0  0  0  0  0  0  0  0  0  0
    2.4409   -2.0240    1.9131 O   0  0  0  0  0  0  0  0  0  0  0  0
    0.6774    1.0154   -3.3856 O   0  0  0  0  0  0  0  0  0  0  0  0
   -3.5327   -0.5731    0.9783 O   0  0  0  0  0  0  0  0  0  0  0  0
   -3.4587    4.1297    1.7466 O   0  0  0  0  0  0  0  0  0  0  0  0
   -2.1202   -0.3193   -1.5115 C   0  0  2  0  0  0  0  0  0  0  0  0
   -1.3986   -0.0532   -2.8351 C   0  0  0  0  0  0  0  0  0  0  0  0
   -0.0913   -1.0571   -0.5494 C   0  0  0  0  0  0  0  0  0  0  0  0
    0.6709   -0.2487   -1.3946 C   0  0  0  0  0  0  0  0  0  0  0  0
    0.5083   -1.6638    0.5553 C   0  0  0  0  0  0  0  0  0  0  0  0
    0.0418    0.3231   -2.5995 C   0  0  0  0  0  0  0  0  0  0  0  0
    2.6113   -0.6120   -0.0066 C   0  0  0  0  0  0  0  0  0  0  0  0
    2.0219   -0.0182   -1.1231 C   0  0  0  0  0  0  0  0  0  0  0  0
   -2.4854    0.8659   -0.6272 C   0  0  0  0  0  0  0  0  0  0  0  0
    1.8575   -1.4370    0.8283 C   0  0  0  0  0  0  0  0  0  0  0  0
   -0.2857   -2.5688    1.4442 C   0  0  0  0  0  0  0  0  0  0  0  0
    4.0527   -0.3590    0.3040 C   0  0  0  0  0  0  0  0  0  0  0  0
   -3.1737    0.6768    0.5718 C   0  0  0  0  0  0  0  0  0  0  0  0
   -2.1244    2.1529   -1.0272 C   0  0  0  0  0  0  0  0  0  0  0  0
   -0.2405   -4.0090    1.0015 C   0  0  0  0  0  0  0  0  0  0  0  0
    4.2559    0.8372    1.1986 C   0  0  0  0  0  0  0  0  0  0  0  0
   -3.5003    1.7733    1.3696 C   0  0  0  0  0  0  0  0  0  0  0  0
   -2.4510    3.2494   -0.2294 C   0  0  0  0  0  0  0  0  0  0  0  0
   -3.1390    3.0596    0.9690 C   0  0  0  0  0  0  0  0  0  0  0  0
   -1.2668   -4.7909    0.6152 C   0  0  0  0  0  0  0  0  0  0  0  0
    4.9329    1.9697    0.9289 C   0  0  0  0  0  0  0  0  0  0  0  0
   -2.6722   -4.2507    0.5999 C   0  0  0  0  0  0  0  0  0  0  0  0
   -1.1502   -6.2254    0.1842 C   0  0  0  0  0  0  0  0  0  0  0  0
    5.6134    2.1516   -0.4019 C   0  0  0  0  0  0  0  0  0  0  0  0
    5.0969    3.1281    1.8714 C   0  0  0  0  0  0  0  0  0  0  0  0
   -3.0601    5.4165    1.2762 C   0  0  0  0  0  0  0  0  0  0  0  0
   -3.0798   -0.7789   -1.7860 H   0  0  0  0  0  0  0  0  0  0  0  0
   -1.8986    0.7228   -3.4232 H   0  0  0  0  0  0  0  0  0  0  0  0
   -1.3801   -0.9711   -3.4365 H   0  0  0  0  0  0  0  0  0  0  0  0
   -1.3009   -2.1790    1.5470 H   0  0  0  0  0  0  0  0  0  0  0  0
    0.1018   -2.5241    2.4707 H   0  0  0  0  0  0  0  0  0  0  0  0
    4.6181   -0.3100   -0.6295 H   0  0  0  0  0  0  0  0  0  0  0  0
    4.5071   -1.2313    0.7915 H   0  0  0  0  0  0  0  0  0  0  0  0
   -1.5954    2.3559   -1.9512 H   0  0  0  0  0  0  0  0  0  0  0  0
    0.7521   -4.4588    1.0079 H   0  0  0  0  0  0  0  0  0  0  0  0
    3.7978    0.7585    2.1842 H   0  0  0  0  0  0  0  0  0  0  0  0
   -4.0363    1.6338    2.3053 H   0  0  0  0  0  0  0  0  0  0  0  0
   -2.1417    4.2207   -0.6004 H   0  0  0  0  0  0  0  0  0  0  0  0
    2.2442    1.2348   -2.5775 H   0  0  0  0  0  0  0  0  0  0  0  0
    3.1717   -1.4797    2.2446 H   0  0  0  0  0  0  0  0  0  0  0  0
   -3.9941   -0.5097    1.8321 H   0  0  0  0  0  0  0  0  0  0  0  0
   -2.8564   -3.4733    1.3439 H   0  0  0  0  0  0  0  0  0  0  0  0
   -2.9172   -3.8626   -0.3938 H   0  0  0  0  0  0  0  0  0  0  0  0
   -3.3863   -5.0499    0.8311 H   0  0  0  0  0  0  0  0  0  0  0  0
   -0.1085   -6.5631    0.1884 H   0  0  0  0  0  0  0  0  0  0  0  0
   -1.7154   -6.8762    0.8588 H   0  0  0  0  0  0  0  0  0  0  0  0
   -1.5377   -6.3503   -0.8320 H   0  0  0  0  0  0  0  0  0  0  0  0
    5.3821    1.4098   -1.1644 H   0  0  0  0  0  0  0  0  0  0  0  0
    5.3284    3.1205   -0.8284 H   0  0  0  0  0  0  0  0  0  0  0  0
    6.7000    2.1544   -0.2625 H   0  0  0  0  0  0  0  0  0  0  0  0
    4.5993    2.9415    2.8287 H   0  0  0  0  0  0  0  0  0  0  0  0
    6.1573    3.3077    2.0748 H   0  0  0  0  0  0  0  0  0  0  0  0
    4.6631    4.0361    1.4406 H   0  0  0  0  0  0  0  0  0  0  0  0
   -3.3952    6.1495    2.0173 H   0  0  0  0  0  0  0  0  0  0  0  0
   -1.9700    5.5018    1.2126 H   0  0  0  0  0  0  0  0  0  0  0  0
   -3.5524    5.6698    0.3311 H   0  0  0  0  0  0  0  0  0  0  0  0
  1  7  1  0  0  0  0
  1  9  1  0  0  0  0
  2 14  1  0  0  0  0
  2 45  1  0  0  0  0
  3 16  1  0  0  0  0
  3 46  1  0  0  0  0
  4 12  2  0  0  0  0
  5 19  1  0  0  0  0
  5 47  1  0  0  0  0
  6 25  1  0  0  0  0
  6 32  1  0  0  0  0
  7  8  1  0  0  0  0
  7 15  1  0  0  0  0
  7 33  1  0  0  0  0
  8 12  1  0  0  0  0
  8 34  1  0  0  0  0
  8 35  1  0  0  0  0
  9 10  1  0  0  0  0
  9 11  2  0  0  0  0
 10 12  1  0  0  0  0
 10 14  2  0  0  0  0
 11 16  1  0  0  0  0
 11 17  1  0  0  0  0
 13 14  1  0  0  0  0
 13 16  2  0  0  0  0
 13 18  1  0  0  0  0
 15 19  2  0  0  0  0
 15 20  1  0  0  0  0
 17 21  1  0  0  0  0
 17 36  1  0  0  0  0
 17 37  1  0  0  0  0
 18 22  1  0  0  0  0
 18 38  1  0  0  0  0
 18 39  1  0  0  0  0
 19 23  1  0  0  0  0
 20 24  2  0  0  0  0
 20 40  1  0  0  0  0
 21 26  2  0  0  0  0
 21 41  1  0  0  0  0
 22 27  2  0  0  0  0
 22 42  1  0  0  0  0
 23 25  2  0  0  0  0
 23 43  1  0  0  0  0
 24 25  1  0  0  0  0
 24 44  1  0  0  0  0
 26 28  1  0  0  0  0
 26 29  1  0  0  0  0
 27 30  1  0  0  0  0
 27 31  1  0  0  0  0
 28 48  1  0  0  0  0
 28 49  1  0  0  0  0
 28 50  1  0  0  0  0
 29 51  1  0  0  0  0
 29 52  1  0  0  0  0
 29 53  1  0  0  0  0
 30 54  1  0  0  0  0
 30 55  1  0  0  0  0
 30 56  1  0  0  0  0
 31 57  1  0  0  0  0
 31 58  1  0  0  0  0
 31 59  1  0  0  0  0
 32 60  1  0  0  0  0
 32 61  1  0  0  0  0
 32 62  1  0  0  0  0
M  END
> <PUBCHEM_COMPOUND_CID>
14531501

> <PUBCHEM_CONFORMER_RMSD>
1

> <PUBCHEM_CONFORMER_DIVERSEORDER>
4
362
541
149
189
351
255
62
21
214
364
381
122
212
495
473
323
18
248
512
240
432
267
506
158
531
223
369
415
33
271
125
467
26
229
119
383
145
403
87
269
470
333
236
244
10
39
251
380
482
15
300
274
250
411
247
275
297
151
165
72
293
365
258
290
285
103
183
114
152
219
254
286
372
234
320
75
423
268
221
319
303
459
17
161
134
525
46
28
93
2
69
6
101
399
232
442
407
307
135
34
164
105
416
388
85
38
170
441
1
124
150
64
40
139
371
23
92
262
205
94
412
154
540
336
153
463
11
216
48
59
3
19
41
73
508
71
156
137
110
424
440
8
91
95
194
42
63
327
202
203
96
90
367
147
47
159
86
138
155
7
76
112
188
24
5
99
31
20
30
9
12
100

> <PUBCHEM_MMFF94_PARTIAL_CHARGES>
40
1 -0.36
10 0.09
11 -0.14
12 0.42
13 -0.14
14 0.08
15 -0.14
16 0.08
17 0.28
18 0.28
19 0.08
2 -0.53
20 -0.15
21 -0.29
22 -0.29
23 -0.15
24 -0.15
25 0.08
26 -0.28
27 -0.28
28 0.14
29 0.14
3 -0.53
30 0.14
31 0.14
32 0.28
4 -0.57
40 0.15
41 0.15
42 0.15
43 0.15
44 0.15
45 0.45
46 0.45
47 0.45
5 -0.53
6 -0.36
7 0.42
8 0.06
9 0.08

> <PUBCHEM_EFFECTIVE_ROTOR_COUNT>
6.6

> <PUBCHEM_PHARMACOPHORE_FEATURES>
11
1 1 acceptor
1 2 donor
1 3 donor
1 4 acceptor
1 5 donor
1 6 acceptor
3 26 28 29 hydrophobe
3 27 30 31 hydrophobe
6 1 7 8 9 10 12 rings
6 15 19 20 23 24 25 rings
6 9 10 11 13 14 16 rings

> <PUBCHEM_HEAVY_ATOM_COUNT>
32

> <PUBCHEM_ATOM_DEF_STEREO_COUNT>
0

> <PUBCHEM_ATOM_UDEF_STEREO_COUNT>
1

> <PUBCHEM_BOND_DEF_STEREO_COUNT>
0

> <PUBCHEM_BOND_UDEF_STEREO_COUNT>
0

> <PUBCHEM_ISOTOPIC_ATOM_COUNT>
0

> <PUBCHEM_COMPONENT_COUNT>
1

> <PUBCHEM_CACTVS_TAUTO_COUNT>
63

> <PUBCHEM_CONFORMER_ID>
00DDBBAD00000004

> <PUBCHEM_MMFF94_ENERGY>
96.6957

> <PUBCHEM_FEATURE_SELFOVERLAP>
55.85

> <PUBCHEM_SHAPE_FINGERPRINT>
10928967 22 12255621108517052505
11552529 35 18191015910448385266
11640471 11 17626077786442351573
12160290 23 17895766217267746542
12293681 160 18051938633037337719
12788726 201 18268689766604649327
13965767 371 17753616741122641473
14068700 675 17393591906921942214
14150022 121 17977660137444592144
17980427 26 18052531080483438366
20600515 1 17696498516952399275
21756936 100 18342451565501079992
23419403 2 16821617238910314215
23559900 14 16960732445905189305
244849 19 17987538038349846590
392239 28 18120094137100683073
469060 322 17024011847669287858
550186 7 18200889481573067774
59444896 2 13200380902852137902
6287921 2 17828224107537904555
6376802 137 17758110789049039090
6823239 73 15510031345002566873
7288768 16 18412821387198791528

> <PUBCHEM_SHAPE_MULTIPOLES>
623.33
8.39
7.33
2.4
14.57
2.79
1.82
-7.09
-3.83
-10.09
-5.04
0.12
-1.05
-0.47

> <PUBCHEM_SHAPE_SELFOVERLAP>
1335.424

> <PUBCHEM_SHAPE_VOLUME>
346

> <PUBCHEM_COORDINATE_TYPE>
2
5
10

$$$$
