15559271
  -OEChem-09112003343D

 57 59  0     1  0  0  0  0  0999 V2000
   -3.6361    1.0757    0.7517 O   0  0  0  0  0  0  0  0  0  0  0  0
    0.3318    1.9619   -1.8701 O   0  0  0  0  0  0  0  0  0  0  0  0
   -2.1068    0.9408    2.9719 O   0  0  0  0  0  0  0  0  0  0  0  0
    2.4137    2.9492    0.5582 O   0  0  0  0  0  0  0  0  0  0  0  0
    5.2637   -0.6990    2.3230 O   0  0  0  0  0  0  0  0  0  0  0  0
    4.8944   -0.0865   -2.4325 O   0  0  0  0  0  0  0  0  0  0  0  0
   -4.4924    1.1442   -0.4087 C   0  0  2  0  0  0  0  0  0  0  0  0
   -5.2128   -0.2068   -0.4910 C   0  0  0  0  0  0  0  0  0  0  0  0
   -3.8034    1.4215   -1.7244 C   0  0  0  0  0  0  0  0  0  0  0  0
   -5.5104    2.2559   -0.1277 C   0  0  0  0  0  0  0  0  0  0  0  0
   -4.2343   -1.3285   -0.8171 C   0  0  0  0  0  0  0  0  0  0  0  0
   -2.2918    1.2677    0.6014 C   0  0  0  0  0  0  0  0  0  0  0  0
   -1.6798    1.5255   -0.6269 C   0  0  0  0  0  0  0  0  0  0  0  0
   -2.4855    1.6011   -1.8334 C   0  0  0  0  0  0  0  0  0  0  0  0
   -0.2928    1.7083   -0.6815 C   0  0  0  0  0  0  0  0  0  0  0  0
   -1.5231    1.1928    1.7661 C   0  0  0  0  0  0  0  0  0  0  0  0
   -4.9462   -2.6487   -0.9051 C   0  0  0  0  0  0  0  0  0  0  0  0
    0.4728    1.6335    0.4831 C   0  0  0  0  0  0  0  0  0  0  0  0
   -0.1423    1.3759    1.7062 C   0  0  0  0  0  0  0  0  0  0  0  0
   -5.1129   -3.5613    0.0708 C   0  0  0  0  0  0  0  0  0  0  0  0
    1.9171    1.8196    0.4456 C   0  0  0  0  0  0  0  0  0  0  0  0
   -5.8385   -4.8679   -0.0832 C   0  0  0  0  0  0  0  0  0  0  0  0
   -4.5421   -3.3237    1.4435 C   0  0  0  0  0  0  0  0  0  0  0  0
    2.7903    0.6159    0.2357 C   0  0  0  0  0  0  0  0  0  0  0  0
    4.1236    0.7449    0.1670 C   0  0  0  0  0  0  0  0  0  0  0  0
    5.0606   -0.3713   -0.0505 C   0  0  0  0  0  0  0  0  0  0  0  0
    5.5881   -1.0426    1.0437 C   0  0  0  0  0  0  0  0  0  0  0  0
    5.4026   -0.7347   -1.3454 C   0  0  0  0  0  0  0  0  0  0  0  0
    6.4757   -2.0990    0.8385 C   0  0  0  0  0  0  0  0  0  0  0  0
    6.2901   -1.7910   -1.5504 C   0  0  0  0  0  0  0  0  0  0  0  0
    6.8267   -2.4732   -0.4584 C   0  0  0  0  0  0  0  0  0  0  0  0
   -5.6990   -0.4232    0.4701 H   0  0  0  0  0  0  0  0  0  0  0  0
   -6.0056   -0.1735   -1.2508 H   0  0  0  0  0  0  0  0  0  0  0  0
   -4.4158    1.4776   -2.6213 H   0  0  0  0  0  0  0  0  0  0  0  0
   -6.0377    2.0729    0.8160 H   0  0  0  0  0  0  0  0  0  0  0  0
   -5.0088    3.2249   -0.0168 H   0  0  0  0  0  0  0  0  0  0  0  0
   -6.2550    2.3441   -0.9265 H   0  0  0  0  0  0  0  0  0  0  0  0
   -3.4128   -1.3756   -0.0961 H   0  0  0  0  0  0  0  0  0  0  0  0
   -3.7587   -1.1703   -1.7922 H   0  0  0  0  0  0  0  0  0  0  0  0
   -2.0292    1.7982   -2.7956 H   0  0  0  0  0  0  0  0  0  0  0  0
   -5.3857   -2.8654   -1.8779 H   0  0  0  0  0  0  0  0  0  0  0  0
    0.4489    1.3163    2.6172 H   0  0  0  0  0  0  0  0  0  0  0  0
   -6.6943   -4.9128    0.5978 H   0  0  0  0  0  0  0  0  0  0  0  0
   -6.2148   -5.0019   -1.1028 H   0  0  0  0  0  0  0  0  0  0  0  0
   -5.1686   -5.7047    0.1389 H   0  0  0  0  0  0  0  0  0  0  0  0
   -3.6915   -3.9914    1.6157 H   0  0  0  0  0  0  0  0  0  0  0  0
   -4.2128   -2.2987    1.6270 H   0  0  0  0  0  0  0  0  0  0  0  0
   -5.3017   -3.5392    2.2036 H   0  0  0  0  0  0  0  0  0  0  0  0
    1.2814    2.1137   -1.7419 H   0  0  0  0  0  0  0  0  0  0  0  0
   -3.0641    0.8368    2.8315 H   0  0  0  0  0  0  0  0  0  0  0  0
    2.3041   -0.3491    0.1351 H   0  0  0  0  0  0  0  0  0  0  0  0
    4.6013    1.7163    0.2659 H   0  0  0  0  0  0  0  0  0  0  0  0
    6.8976   -2.6348    1.6846 H   0  0  0  0  0  0  0  0  0  0  0  0
    6.5731   -2.0941   -2.5550 H   0  0  0  0  0  0  0  0  0  0  0  0
    7.5179   -3.2958   -0.6180 H   0  0  0  0  0  0  0  0  0  0  0  0
    4.6734    0.0707    2.3383 H   0  0  0  0  0  0  0  0  0  0  0  0
    5.2540   -0.4894   -3.2413 H   0  0  0  0  0  0  0  0  0  0  0  0
  1  7  1  0  0  0  0
  1 12  1  0  0  0  0
  2 15  1  0  0  0  0
  2 49  1  0  0  0  0
  3 16  1  0  0  0  0
  3 50  1  0  0  0  0
  4 21  2  0  0  0  0
  5 27  1  0  0  0  0
  5 56  1  0  0  0  0
  6 28  1  0  0  0  0
  6 57  1  0  0  0  0
  7  8  1  0  0  0  0
  7  9  1  0  0  0  0
  7 10  1  0  0  0  0
  8 11  1  0  0  0  0
  8 32  1  0  0  0  0
  8 33  1  0  0  0  0
  9 14  2  0  0  0  0
  9 34  1  0  0  0  0
 10 35  1  0  0  0  0
 10 36  1  0  0  0  0
 10 37  1  0  0  0  0
 11 17  1  0  0  0  0
 11 38  1  0  0  0  0
 11 39  1  0  0  0  0
 12 13  1  0  0  0  0
 12 16  2  0  0  0  0
 13 14  1  0  0  0  0
 13 15  2  0  0  0  0
 14 40  1  0  0  0  0
 15 18  1  0  0  0  0
 16 19  1  0  0  0  0
 17 20  2  0  0  0  0
 17 41  1  0  0  0  0
 18 19  2  0  0  0  0
 18 21  1  0  0  0  0
 19 42  1  0  0  0  0
 20 22  1  0  0  0  0
 20 23  1  0  0  0  0
 21 24  1  0  0  0  0
 22 43  1  0  0  0  0
 22 44  1  0  0  0  0
 22 45  1  0  0  0  0
 23 46  1  0  0  0  0
 23 47  1  0  0  0  0
 23 48  1  0  0  0  0
 24 25  2  0  0  0  0
 24 51  1  0  0  0  0
 25 26  1  0  0  0  0
 25 52  1  0  0  0  0
 26 27  2  0  0  0  0
 26 28  1  0  0  0  0
 27 29  1  0  0  0  0
 28 30  2  0  0  0  0
 29 31  2  0  0  0  0
 29 53  1  0  0  0  0
 30 31  1  0  0  0  0
 30 54  1  0  0  0  0
 31 55  1  0  0  0  0
M  END
> <PUBCHEM_COMPOUND_CID>
15559271

> <PUBCHEM_CONFORMER_RMSD>
0.8

> <PUBCHEM_CONFORMER_DIVERSEORDER>
2
169
280
28
12
112
10
243
33
189
143
172
61
151
273
1
255
134
166
270
285
75
149
71
191
8
37
192
253
138
97
282
147
34
119
150
106
125
163
43
245
18
73
202
263
216
17
154
212
121
14
174
137
207
144
80
24
139
131
153
16
57
281
276
50
278
158
126
6
198
286
123
266
178
129
203
208
36
22
227
92
250
122
262
159
231
42
156
170
210
165
201
132
220
205
287
140
271
288
199
65
81
103
206
221
164
275
77
108
182
107
120
228
284
268
66
111
100
113
145
99
211
267
68
62
40
31
87
7
82
128
98
89
256
177
38
247
94
196
76
30
114
167
239
29
229
186
190
168
19
213
5
264
21
90
194
86
237
52
44
35
64
4
244
104
252
15
251
58
70
130
127
135
185
54
241
187
269
56
96
69
219
257
83
179
157
261
141
110
11
238
105
91
279
84
142
124
230
3
23
39
224
72
95
200
63
118
260
133
204
146
13
225
20
74
258
246
53
218
240
26
232
272
209
233
175
41
183
173
47
265
102
214
180
101
78
48
197
259
236
45
223
27
79
181
155
242
160
51
55
116
222
195
235
49
148
59
88
67
234
184
9
46
162
217
215
161
93
248
277
249
176
136
115
171
117
226
152
274
25
254
32
188
109
60
193
85
283

> <PUBCHEM_MMFF94_PARTIAL_CHARGES>
42
1 -0.36
11 0.14
12 0.08
13 0.03
14 -0.18
15 0.08
16 0.08
17 -0.29
18 0.09
19 -0.15
2 -0.53
20 -0.28
21 0.47
22 0.14
23 0.14
24 -0.14
25 -0.18
26 0.03
27 0.08
28 0.08
29 -0.15
3 -0.53
30 -0.15
31 -0.15
34 0.15
4 -0.57
40 0.15
41 0.15
42 0.15
49 0.45
5 -0.53
50 0.45
51 0.15
52 0.15
53 0.15
54 0.15
55 0.15
56 0.45
57 0.45
6 -0.53
7 0.42
9 -0.29

> <PUBCHEM_EFFECTIVE_ROTOR_COUNT>
6.4

> <PUBCHEM_PHARMACOPHORE_FEATURES>
10
1 1 acceptor
1 2 donor
1 3 donor
1 4 acceptor
1 5 donor
1 6 donor
3 20 22 23 hydrophobe
6 1 7 9 12 13 14 rings
6 12 13 15 16 18 19 rings
6 26 27 28 29 30 31 rings

> <PUBCHEM_HEAVY_ATOM_COUNT>
31

> <PUBCHEM_ATOM_DEF_STEREO_COUNT>
0

> <PUBCHEM_ATOM_UDEF_STEREO_COUNT>
1

> <PUBCHEM_BOND_DEF_STEREO_COUNT>
1

> <PUBCHEM_BOND_UDEF_STEREO_COUNT>
0

> <PUBCHEM_ISOTOPIC_ATOM_COUNT>
0

> <PUBCHEM_COMPONENT_COUNT>
1

> <PUBCHEM_CACTVS_TAUTO_COUNT>
104

> <PUBCHEM_CONFORMER_ID>
00ED6A6700000002

> <PUBCHEM_MMFF94_ENERGY>
97.2789

> <PUBCHEM_FEATURE_SELFOVERLAP>
50.776

> <PUBCHEM_SHAPE_FINGERPRINT>
10074138 170 16987176945703270697
10119406 146 18410288122000513911
10369192 42 13695872472657070157
10554248 39 13985204593096995960
10556698 54 14130436979603177847
10883706 89 11311237343500274660
117089 54 17755589583555296323
11796584 16 18341044146924016265
12422481 6 15410351995528733605
12925494 130 14546783322722651160
13383661 66 18269284619353924275
1361 4 18266739275731169771
13782708 43 18339358668887275739
14211702 104 18342736359901909042
14739800 52 10015319996081918805
14951699 99 10591774219755834491
15183329 4 15719680844940820928
15510800 12 18271804653208117479
15575132 122 11674882173374364598
17492 89 18267019643070327429
17627616 140 18043244635272175658
1813 80 18059860498779283060
18603816 31 18337680719416782467
20775438 99 17316762389036685510
21814621 53 17988633104180231817
22122407 14 11167641236212976910
23379529 103 17971755734080513659
23559900 14 18271796943420151993
25122255 55 18272370883993832170
2838139 119 10665487661357198307
3383291 50 17704064093670762855
3862424 121 17533513476050844107
392239 28 14692558919174177504
437795 139 18334860562264861271
44062 13 18408601461634118869
474113 269 17702656813556428815
484985 159 18201729453260631795
50009960 94 18193247833285462698
5104073 3 17775006833893328393
513202 73 18338236089523390087
57527585 21 14346611866893909967
7970288 3 18269837502668218766
8863177 126 18411135878753992270

> <PUBCHEM_SHAPE_MULTIPOLES>
602.75
18.65
4.37
2.03
18.72
5.47
-0.38
19.07
2.78
-7.58
-0.16
0.81
-0.41
1.01

> <PUBCHEM_SHAPE_SELFOVERLAP>
1299.264

> <PUBCHEM_SHAPE_VOLUME>
330.5

> <PUBCHEM_COORDINATE_TYPE>
2
5
10

$$$$
