42607587
  -OEChem-09112003463D

 62 63  0     0  0  0  0  0  0999 V2000
   -1.5283    1.1134    2.1144 O   0  0  0  0  0  0  0  0  0  0  0  0
    0.8411    2.5678   -1.7881 O   0  0  0  0  0  0  0  0  0  0  0  0
   -3.9008    2.2304   -1.8887 O   0  0  0  0  0  0  0  0  0  0  0  0
    1.1650    2.3737    1.9132 O   0  0  0  0  0  0  0  0  0  0  0  0
    5.9286    1.1909    1.3838 O   0  0  0  0  0  0  0  0  0  0  0  0
    4.5804   -3.4746   -1.2283 O   0  0  0  0  0  0  0  0  0  0  0  0
   -4.0345    1.3419    0.8145 C   0  0  0  0  0  0  0  0  0  0  0  0
   -5.4696   -2.3487    0.5951 C   0  0  0  0  0  0  0  0  0  0  0  0
   -4.8543   -1.0664    1.1149 C   0  0  0  0  0  0  0  0  0  0  0  0
   -2.7316    1.6660    0.1271 C   0  0  0  0  0  0  0  0  0  0  0  0
   -4.6042    0.0254    0.3654 C   0  0  0  0  0  0  0  0  0  0  0  0
   -4.4384   -3.4123    0.1951 C   0  0  0  0  0  0  0  0  0  0  0  0
   -1.5262    1.5357    0.8167 C   0  0  0  0  0  0  0  0  0  0  0  0
   -0.3222    1.8365    0.1798 C   0  0  0  0  0  0  0  0  0  0  0  0
   -2.7330    2.0972   -1.1994 C   0  0  0  0  0  0  0  0  0  0  0  0
   -4.5555   -1.0503    2.5921 C   0  0  0  0  0  0  0  0  0  0  0  0
   -0.3237    2.2678   -1.1468 C   0  0  0  0  0  0  0  0  0  0  0  0
   -1.5291    2.3981   -1.8364 C   0  0  0  0  0  0  0  0  0  0  0  0
   -3.6020   -2.9925   -0.9818 C   0  0  0  0  0  0  0  0  0  0  0  0
   -2.2639   -2.8576   -1.0454 C   0  0  0  0  0  0  0  0  0  0  0  0
    0.9395    1.7005    0.8987 C   0  0  0  0  0  0  0  0  0  0  0  0
    1.9698    0.7498    0.3623 C   0  0  0  0  0  0  0  0  0  0  0  0
   -1.4894   -2.4319   -2.2601 C   0  0  0  0  0  0  0  0  0  0  0  0
   -1.4115   -3.1553    0.1596 C   0  0  0  0  0  0  0  0  0  0  0  0
    3.1549    0.6143    0.9753 C   0  0  0  0  0  0  0  0  0  0  0  0
    4.2346   -0.2785    0.5187 C   0  0  0  0  0  0  0  0  0  0  0  0
    1.2994    3.9153   -1.7007 C   0  0  0  0  0  0  0  0  0  0  0  0
    5.5740    0.0426    0.7393 C   0  0  0  0  0  0  0  0  0  0  0  0
    3.9006   -1.4602   -0.1425 C   0  0  0  0  0  0  0  0  0  0  0  0
    4.9057   -2.3209   -0.5834 C   0  0  0  0  0  0  0  0  0  0  0  0
    6.5794   -0.8180    0.2984 C   0  0  0  0  0  0  0  0  0  0  0  0
    6.2452   -1.9998   -0.3629 C   0  0  0  0  0  0  0  0  0  0  0  0
   -4.7634    2.1252    0.5642 H   0  0  0  0  0  0  0  0  0  0  0  0
   -3.9399    1.4259    1.9002 H   0  0  0  0  0  0  0  0  0  0  0  0
   -6.1079   -2.1204   -0.2692 H   0  0  0  0  0  0  0  0  0  0  0  0
   -6.1449   -2.7617    1.3551 H   0  0  0  0  0  0  0  0  0  0  0  0
   -4.8672   -0.0336   -0.6902 H   0  0  0  0  0  0  0  0  0  0  0  0
   -4.9837   -4.3177   -0.1017 H   0  0  0  0  0  0  0  0  0  0  0  0
   -3.8457   -3.7026    1.0661 H   0  0  0  0  0  0  0  0  0  0  0  0
   -5.4486   -0.7601    3.1544 H   0  0  0  0  0  0  0  0  0  0  0  0
   -3.7290   -0.3932    2.8691 H   0  0  0  0  0  0  0  0  0  0  0  0
   -4.2584   -2.0504    2.9281 H   0  0  0  0  0  0  0  0  0  0  0  0
   -1.5232    2.7338   -2.8706 H   0  0  0  0  0  0  0  0  0  0  0  0
   -4.1684   -2.7782   -1.8876 H   0  0  0  0  0  0  0  0  0  0  0  0
   -0.6237    1.0553    2.4608 H   0  0  0  0  0  0  0  0  0  0  0  0
    1.7089    0.1977   -0.5341 H   0  0  0  0  0  0  0  0  0  0  0  0
   -0.9486   -1.5007   -2.0617 H   0  0  0  0  0  0  0  0  0  0  0  0
   -2.1487   -2.2589   -3.1170 H   0  0  0  0  0  0  0  0  0  0  0  0
   -0.7677   -3.2047   -2.5433 H   0  0  0  0  0  0  0  0  0  0  0  0
   -1.0500   -4.1877    0.1220 H   0  0  0  0  0  0  0  0  0  0  0  0
   -1.9192   -2.9877    1.1121 H   0  0  0  0  0  0  0  0  0  0  0  0
   -0.5372   -2.4936    0.1750 H   0  0  0  0  0  0  0  0  0  0  0  0
   -3.7046    2.5367   -2.7906 H   0  0  0  0  0  0  0  0  0  0  0  0
    3.3798    1.2006    1.8627 H   0  0  0  0  0  0  0  0  0  0  0  0
    2.2533    3.9871   -2.2303 H   0  0  0  0  0  0  0  0  0  0  0  0
    1.4564    4.2073   -0.6577 H   0  0  0  0  0  0  0  0  0  0  0  0
    0.5836    4.5934   -2.1761 H   0  0  0  0  0  0  0  0  0  0  0  0
    2.8639   -1.7428   -0.3090 H   0  0  0  0  0  0  0  0  0  0  0  0
    7.6272   -0.5812    0.4631 H   0  0  0  0  0  0  0  0  0  0  0  0
    7.0326   -2.6664   -0.7040 H   0  0  0  0  0  0  0  0  0  0  0  0
    6.8983    1.2377    1.4414 H   0  0  0  0  0  0  0  0  0  0  0  0
    3.6122   -3.5372   -1.2961 H   0  0  0  0  0  0  0  0  0  0  0  0
  1 13  1  0  0  0  0
  1 45  1  0  0  0  0
  2 17  1  0  0  0  0
  2 27  1  0  0  0  0
  3 15  1  0  0  0  0
  3 53  1  0  0  0  0
  4 21  2  0  0  0  0
  5 28  1  0  0  0  0
  5 61  1  0  0  0  0
  6 30  1  0  0  0  0
  6 62  1  0  0  0  0
  7 10  1  0  0  0  0
  7 11  1  0  0  0  0
  7 33  1  0  0  0  0
  7 34  1  0  0  0  0
  8  9  1  0  0  0  0
  8 12  1  0  0  0  0
  8 35  1  0  0  0  0
  8 36  1  0  0  0  0
  9 11  2  0  0  0  0
  9 16  1  0  0  0  0
 10 13  2  0  0  0  0
 10 15  1  0  0  0  0
 11 37  1  0  0  0  0
 12 19  1  0  0  0  0
 12 38  1  0  0  0  0
 12 39  1  0  0  0  0
 13 14  1  0  0  0  0
 14 17  2  0  0  0  0
 14 21  1  0  0  0  0
 15 18  2  0  0  0  0
 16 40  1  0  0  0  0
 16 41  1  0  0  0  0
 16 42  1  0  0  0  0
 17 18  1  0  0  0  0
 18 43  1  0  0  0  0
 19 20  2  0  0  0  0
 19 44  1  0  0  0  0
 20 23  1  0  0  0  0
 20 24  1  0  0  0  0
 21 22  1  0  0  0  0
 22 25  2  0  0  0  0
 22 46  1  0  0  0  0
 23 47  1  0  0  0  0
 23 48  1  0  0  0  0
 23 49  1  0  0  0  0
 24 50  1  0  0  0  0
 24 51  1  0  0  0  0
 24 52  1  0  0  0  0
 25 26  1  0  0  0  0
 25 54  1  0  0  0  0
 26 28  2  0  0  0  0
 26 29  1  0  0  0  0
 27 55  1  0  0  0  0
 27 56  1  0  0  0  0
 27 57  1  0  0  0  0
 28 31  1  0  0  0  0
 29 30  2  0  0  0  0
 29 58  1  0  0  0  0
 30 32  1  0  0  0  0
 31 32  2  0  0  0  0
 31 59  1  0  0  0  0
 32 60  1  0  0  0  0
M  END
> <PUBCHEM_COMPOUND_CID>
42607587

> <PUBCHEM_CONFORMER_RMSD>
1.4

> <PUBCHEM_CONFORMER_DIVERSEORDER>
1
29
88
127
132
8
94
104
63
26
122
77
120
33
78
124
12
81
91
99
86
135
30
92
50
57
68
17
115
4
16
20
108
118
134
66
98
58
128
87
110
126
43
18
31
97
73
103
75
6
53
100
36
42
22
102
84
131
93
67
114
130
24
96
121
136
82
107
123
72
119
56
45
133
116
40
111
69
105
113
54
83
74
95
76
27
7
9
89
106
41
55
11
90
34
51
71
117
125
49
52
101
65
28
70
39
15
60
129
85
44
112
2
46
23
79
61
3
37
48
47
64
59
14
25
5
62
21
35
13
109
19
38
10
80
32

> <PUBCHEM_MMFF94_PARTIAL_CHARGES>
44
1 -0.53
10 -0.14
11 -0.29
12 0.14
13 0.08
14 0.09
15 0.08
16 0.14
17 0.08
18 -0.15
19 -0.29
2 -0.36
20 -0.28
21 0.47
22 -0.14
23 0.14
24 0.14
25 -0.18
26 0.03
27 0.28
28 0.08
29 -0.15
3 -0.53
30 0.08
31 -0.15
32 -0.15
37 0.15
4 -0.57
43 0.15
44 0.15
45 0.45
46 0.15
5 -0.53
53 0.45
54 0.15
58 0.15
59 0.15
6 -0.53
60 0.15
61 0.45
62 0.45
7 0.28
8 0.14
9 -0.28

> <PUBCHEM_EFFECTIVE_ROTOR_COUNT>
9

> <PUBCHEM_PHARMACOPHORE_FEATURES>
11
1 1 donor
1 16 hydrophobe
1 2 acceptor
1 3 donor
1 4 acceptor
1 5 donor
1 6 donor
3 20 23 24 hydrophobe
4 8 9 12 19 hydrophobe
6 10 13 14 15 17 18 rings
6 26 28 29 30 31 32 rings

> <PUBCHEM_HEAVY_ATOM_COUNT>
32

> <PUBCHEM_ATOM_DEF_STEREO_COUNT>
0

> <PUBCHEM_ATOM_UDEF_STEREO_COUNT>
0

> <PUBCHEM_BOND_DEF_STEREO_COUNT>
2

> <PUBCHEM_BOND_UDEF_STEREO_COUNT>
0

> <PUBCHEM_ISOTOPIC_ATOM_COUNT>
0

> <PUBCHEM_COMPONENT_COUNT>
1

> <PUBCHEM_CACTVS_TAUTO_COUNT>
147

> <PUBCHEM_CONFORMER_ID>
028A23E300000001

> <PUBCHEM_MMFF94_ENERGY>
92.5836

> <PUBCHEM_FEATURE_SELFOVERLAP>
55.827

> <PUBCHEM_SHAPE_FINGERPRINT>
10032420 55 16805594867860391345
10305334 12 17273151098351400515
11135609 12 18263352749931749197
11524674 6 17917424294669631151
117089 54 17901958757387999531
11756154 5 18056477254071281878
12422481 6 18271537450402215715
12522641 33 18120644740263487805
13165053 137 15958630804566498779
13402501 40 18342741788693390714
13561361 72 18339360769348414270
13782708 43 18336264519229899954
14114206 34 16298376951317144517
14117953 113 18334572431111689085
14950920 106 17274826899826602211
16110190 28 18272374203998407195
20775530 9 18339347673786939286
229767 44 18131354158635868655
469060 322 17530683186627460262
5081480 168 16951120815259051215
513202 73 18260266374033277307

> <PUBCHEM_SHAPE_MULTIPOLES>
623.33
14.29
4.96
2
16.51
0.98
0.06
11.48
-3.82
-2.06
2.68
-1.42
-0.68
1.4

> <PUBCHEM_SHAPE_SELFOVERLAP>
1307.915

> <PUBCHEM_SHAPE_VOLUME>
351.3

> <PUBCHEM_COORDINATE_TYPE>
2
5
10

$$$$
