484588
  -OEChem-09112003143D

 58 60  0     1  0  0  0  0  0999 V2000
    0.8782   -0.3579   -0.4624 O   0  0  0  0  0  0  0  0  0  0  0  0
    3.0308   -2.9874    1.8360 O   0  0  0  0  0  0  0  0  0  0  0  0
    5.1797   -1.5697    1.4423 O   0  0  0  0  0  0  0  0  0  0  0  0
    4.6969    2.4006   -1.0981 O   0  0  0  0  0  0  0  0  0  0  0  0
   -5.0780   -2.1471   -1.2761 O   0  0  0  0  0  0  0  0  0  0  0  0
    0.5019   -1.7416   -0.3832 C   0  0  1  0  0  0  0  0  0  0  0  0
    0.8904   -2.3385    0.9681 C   0  0  0  0  0  0  0  0  0  0  0  0
    2.2138   -0.1538   -0.2296 C   0  0  0  0  0  0  0  0  0  0  0  0
   -0.9904   -1.8461   -0.6174 C   0  0  0  0  0  0  0  0  0  0  0  0
    3.0059   -1.0231    0.5263 C   0  0  0  0  0  0  0  0  0  0  0  0
    2.3793   -2.2040    1.1554 C   0  0  0  0  0  0  0  0  0  0  0  0
    2.7743    1.0062   -0.7658 C   0  0  0  0  0  0  0  0  0  0  0  0
   -1.8802   -1.2477    0.2740 C   0  0  0  0  0  0  0  0  0  0  0  0
    4.3631   -0.7537    0.7192 C   0  0  0  0  0  0  0  0  0  0  0  0
    1.9341    1.9570   -1.5583 C   0  0  0  0  0  0  0  0  0  0  0  0
   -1.4735   -2.5417   -1.7252 C   0  0  0  0  0  0  0  0  0  0  0  0
   -3.2548   -1.3449    0.0575 C   0  0  0  0  0  0  0  0  0  0  0  0
    4.1292    1.2779   -0.5733 C   0  0  0  0  0  0  0  0  0  0  0  0
    4.9225    0.3974    0.1632 C   0  0  0  0  0  0  0  0  0  0  0  0
   -3.7388   -2.0406   -1.0505 C   0  0  0  0  0  0  0  0  0  0  0  0
   -4.1938   -0.6970    1.0205 C   0  0  0  0  0  0  0  0  0  0  0  0
   -2.8480   -2.6388   -1.9419 C   0  0  0  0  0  0  0  0  0  0  0  0
    1.2899    3.0189   -0.7040 C   0  0  0  0  0  0  0  0  0  0  0  0
   -4.5273    0.7263    0.6478 C   0  0  0  0  0  0  0  0  0  0  0  0
   -0.0236    3.2515   -0.5192 C   0  0  0  0  0  0  0  0  0  0  0  0
   -4.2822    1.8482    1.3513 C   0  0  0  0  0  0  0  0  0  0  0  0
   -0.5995    4.3327    0.3506 C   0  0  0  0  0  0  0  0  0  0  0  0
   -1.0530    2.4036   -1.2184 C   0  0  0  0  0  0  0  0  0  0  0  0
   -4.6435    3.2406    0.9179 C   0  0  0  0  0  0  0  0  0  0  0  0
   -3.6033    1.7727    2.6932 C   0  0  0  0  0  0  0  0  0  0  0  0
    1.0274   -2.2761   -1.1884 H   0  0  0  0  0  0  0  0  0  0  0  0
    0.6225   -3.4003    1.0071 H   0  0  0  0  0  0  0  0  0  0  0  0
    0.4175   -1.8220    1.8109 H   0  0  0  0  0  0  0  0  0  0  0  0
   -1.5080   -0.6921    1.1311 H   0  0  0  0  0  0  0  0  0  0  0  0
    2.5569    2.4739   -2.3011 H   0  0  0  0  0  0  0  0  0  0  0  0
    1.2373    1.3953   -2.1836 H   0  0  0  0  0  0  0  0  0  0  0  0
   -0.7925   -3.0132   -2.4286 H   0  0  0  0  0  0  0  0  0  0  0  0
    5.9782    0.6153    0.3093 H   0  0  0  0  0  0  0  0  0  0  0  0
   -5.1275   -1.2662    1.1082 H   0  0  0  0  0  0  0  0  0  0  0  0
   -3.7717   -0.7736    2.0281 H   0  0  0  0  0  0  0  0  0  0  0  0
   -3.2185   -3.1823   -2.8068 H   0  0  0  0  0  0  0  0  0  0  0  0
    1.9886    3.6741   -0.1842 H   0  0  0  0  0  0  0  0  0  0  0  0
   -5.0350    0.8428   -0.3094 H   0  0  0  0  0  0  0  0  0  0  0  0
    6.0795   -1.2010    1.4545 H   0  0  0  0  0  0  0  0  0  0  0  0
    5.6401    2.4210   -0.8619 H   0  0  0  0  0  0  0  0  0  0  0  0
   -5.5613   -1.4399   -0.8219 H   0  0  0  0  0  0  0  0  0  0  0  0
    0.1868    4.9391    0.8120 H   0  0  0  0  0  0  0  0  0  0  0  0
   -1.2354    5.0015   -0.2380 H   0  0  0  0  0  0  0  0  0  0  0  0
   -1.1984    3.8946    1.1551 H   0  0  0  0  0  0  0  0  0  0  0  0
   -0.6726    1.6411   -1.8955 H   0  0  0  0  0  0  0  0  0  0  0  0
   -1.6655    1.8880   -0.4716 H   0  0  0  0  0  0  0  0  0  0  0  0
   -1.7162    3.0445   -1.8104 H   0  0  0  0  0  0  0  0  0  0  0  0
   -5.1600    3.2395   -0.0476 H   0  0  0  0  0  0  0  0  0  0  0  0
   -5.3078    3.7079    1.6519 H   0  0  0  0  0  0  0  0  0  0  0  0
   -3.7454    3.8569    0.8143 H   0  0  0  0  0  0  0  0  0  0  0  0
   -2.8938    0.9463    2.7782 H   0  0  0  0  0  0  0  0  0  0  0  0
   -3.0168    2.6812    2.8729 H   0  0  0  0  0  0  0  0  0  0  0  0
   -4.3485    1.6923    3.4908 H   0  0  0  0  0  0  0  0  0  0  0  0
  1  6  1  0  0  0  0
  1  8  1  0  0  0  0
  2 11  2  0  0  0  0
  3 14  1  0  0  0  0
  3 44  1  0  0  0  0
  4 18  1  0  0  0  0
  4 45  1  0  0  0  0
  5 20  1  0  0  0  0
  5 46  1  0  0  0  0
  6  7  1  0  0  0  0
  6  9  1  0  0  0  0
  6 31  1  0  0  0  0
  7 11  1  0  0  0  0
  7 32  1  0  0  0  0
  7 33  1  0  0  0  0
  8 10  1  0  0  0  0
  8 12  2  0  0  0  0
  9 13  2  0  0  0  0
  9 16  1  0  0  0  0
 10 11  1  0  0  0  0
 10 14  2  0  0  0  0
 12 15  1  0  0  0  0
 12 18  1  0  0  0  0
 13 17  1  0  0  0  0
 13 34  1  0  0  0  0
 14 19  1  0  0  0  0
 15 23  1  0  0  0  0
 15 35  1  0  0  0  0
 15 36  1  0  0  0  0
 16 22  2  0  0  0  0
 16 37  1  0  0  0  0
 17 20  2  0  0  0  0
 17 21  1  0  0  0  0
 18 19  2  0  0  0  0
 19 38  1  0  0  0  0
 20 22  1  0  0  0  0
 21 24  1  0  0  0  0
 21 39  1  0  0  0  0
 21 40  1  0  0  0  0
 22 41  1  0  0  0  0
 23 25  2  0  0  0  0
 23 42  1  0  0  0  0
 24 26  2  0  0  0  0
 24 43  1  0  0  0  0
 25 27  1  0  0  0  0
 25 28  1  0  0  0  0
 26 29  1  0  0  0  0
 26 30  1  0  0  0  0
 27 47  1  0  0  0  0
 27 48  1  0  0  0  0
 27 49  1  0  0  0  0
 28 50  1  0  0  0  0
 28 51  1  0  0  0  0
 28 52  1  0  0  0  0
 29 53  1  0  0  0  0
 29 54  1  0  0  0  0
 29 55  1  0  0  0  0
 30 56  1  0  0  0  0
 30 57  1  0  0  0  0
 30 58  1  0  0  0  0
M  END
> <PUBCHEM_COMPOUND_CID>
484588

> <PUBCHEM_CONFORMER_RMSD>
1

> <PUBCHEM_CONFORMER_DIVERSEORDER>
1
13
98
150
151
30
31
44
128
55
62
141
93
33
124
9
74
39
122
136
38
10
147
126
6
41
65
90
107
79
119
28
115
121
131
95
58
135
16
112
94
78
143
110
70
49
27
149
37
47
81
8
148
100
116
105
63
85
36
132
104
133
82
46
25
26
125
91
139
19
21
145
66
14
20
123
146
43
76
84
113
42
3
80
73
53
89
138
134
77
140
102
48
106
96
92
101
108
86
137
144
71
12
72
69
59
114
23
56
87
18
61
34
7
22
24
129
99
52
88
109
51
83
32
11
29
97
127
120
40
142
152
68
111
60
15
35
75
118
64
117
5
54
2
50
103
4
130
67
57
17
45

> <PUBCHEM_MMFF94_PARTIAL_CHARGES>
39
1 -0.36
10 0.09
11 0.42
12 -0.14
13 -0.15
14 0.08
15 0.28
16 -0.15
17 -0.14
18 0.08
19 -0.15
2 -0.57
20 0.08
21 0.28
22 -0.15
23 -0.29
24 -0.29
25 -0.28
26 -0.28
27 0.14
28 0.14
29 0.14
3 -0.53
30 0.14
34 0.15
37 0.15
38 0.15
4 -0.53
41 0.15
42 0.15
43 0.15
44 0.45
45 0.45
46 0.45
5 -0.53
6 0.42
7 0.06
8 0.08
9 -0.14

> <PUBCHEM_EFFECTIVE_ROTOR_COUNT>
5.6

> <PUBCHEM_PHARMACOPHORE_FEATURES>
10
1 1 acceptor
1 2 acceptor
1 3 donor
1 4 donor
1 5 donor
3 25 27 28 hydrophobe
3 26 29 30 hydrophobe
6 1 6 7 8 10 11 rings
6 8 10 12 14 18 19 rings
6 9 13 16 17 20 22 rings

> <PUBCHEM_HEAVY_ATOM_COUNT>
30

> <PUBCHEM_ATOM_DEF_STEREO_COUNT>
1

> <PUBCHEM_ATOM_UDEF_STEREO_COUNT>
0

> <PUBCHEM_BOND_DEF_STEREO_COUNT>
0

> <PUBCHEM_BOND_UDEF_STEREO_COUNT>
0

> <PUBCHEM_ISOTOPIC_ATOM_COUNT>
0

> <PUBCHEM_COMPONENT_COUNT>
1

> <PUBCHEM_CACTVS_TAUTO_COUNT>
63

> <PUBCHEM_CONFORMER_ID>
000764EC00000001

> <PUBCHEM_MMFF94_ENERGY>
74.7827

> <PUBCHEM_FEATURE_SELFOVERLAP>
50.776

> <PUBCHEM_SHAPE_FINGERPRINT>
10653451 467 16468948270073865698
10674148 151 18338817658644641918
10708813 3 18340779225120756873
10721379 63 16043890879507267511
10906281 52 18116725200273916772
11513181 2 17843973546411163405
12107183 9 18052252899562527459
12156800 1 11145494413291818297
12236239 1 18341040925915400375
12422481 6 18264492775933196480
12788726 201 18336270124046260948
13140716 1 18408324380251047264
13583140 156 18042685194807817775
13965767 371 18127422145987352611
14068700 675 17916003816136192069
14117953 113 17979923709436652805
14464042 87 18341047531600650367
14784336 7 17836641199554861103
14790565 3 18044675310754021836
14840074 17 18266479636647955577
15297060 5 17417268532420786811
15403338 16 17749957635941179465
15420108 30 18199757955565106569
15475509 8 18266477442568332054
15484559 13 16019687883510201005
17818456 19 18058452002106990370
1979834 28 17766584373404472681
20511986 3 18410566275959845153
20715895 44 17761215410892087961
20739085 24 18040443191734692500
21033650 10 17843992396711674222
21133410 90 17773006797105972373
2132832 1 18128238164494366503
22113638 7 18412550886201300905
22122407 14 18334299769133640817
23569914 2 16338865346176481256
238918 7 17477477608864138559
3388396 114 17480573185332398741
392239 28 18338783599006183056
469060 322 17822288032847602837
46939830 39 13677217285890147301
474 4 18116145765281666342
5047190 48 18052269401259544337
5895379 119 17988376951998173780
6287921 2 17410233711308838177
7064713 232 18201163131072152249
7471813 234 18127393764964838407
9849439 229 17343238324776981801

> <PUBCHEM_SHAPE_MULTIPOLES>
588.04
10.62
4.94
1.81
0.35
3.22
0.35
0.44
2.95
-2.31
-0.57
-0.9
-0.37
-4.54

> <PUBCHEM_SHAPE_SELFOVERLAP>
1259.323

> <PUBCHEM_SHAPE_VOLUME>
325.3

> <PUBCHEM_COORDINATE_TYPE>
2
5
10

$$$$
