24776964
  -OEChem-09112003353D

 56 58  0     1  0  0  0  0  0999 V2000
   -2.8845   -1.6753   -0.3978 O   0  0  0  0  0  0  0  0  0  0  0  0
   -0.0893    1.4699    1.9892 O   0  0  0  0  0  0  0  0  0  0  0  0
   -1.0232   -1.8088   -2.3481 O   0  0  0  0  0  0  0  0  0  0  0  0
    1.8236    2.5646   -0.0193 O   0  0  0  0  0  0  0  0  0  0  0  0
    9.3767   -1.2000   -0.1125 O   0  0  0  0  0  0  0  0  0  0  0  0
   -3.9042   -1.6382    0.6238 C   0  0  2  0  0  0  0  0  0  0  0  0
   -5.1929   -1.1849   -0.0723 C   0  0  0  0  0  0  0  0  0  0  0  0
   -3.6293   -0.7315    1.8006 C   0  0  0  0  0  0  0  0  0  0  0  0
   -4.0660   -3.0788    1.1231 C   0  0  0  0  0  0  0  0  0  0  0  0
   -5.0819    0.2614   -0.5392 C   0  0  0  0  0  0  0  0  0  0  0  0
   -1.7581   -0.9175   -0.2443 C   0  0  0  0  0  0  0  0  0  0  0  0
   -1.5271   -0.0890    0.8556 C   0  0  0  0  0  0  0  0  0  0  0  0
   -2.5172   -0.0027    1.9153 C   0  0  0  0  0  0  0  0  0  0  0  0
   -0.3408    0.6512    0.9244 C   0  0  0  0  0  0  0  0  0  0  0  0
   -0.8106   -1.0050   -1.2679 C   0  0  0  0  0  0  0  0  0  0  0  0
   -6.3501    0.7035   -1.2128 C   0  0  0  0  0  0  0  0  0  0  0  0
    0.6043    0.5619   -0.0988 C   0  0  0  0  0  0  0  0  0  0  0  0
    0.3693   -0.2659   -1.1944 C   0  0  0  0  0  0  0  0  0  0  0  0
   -7.4538    1.2158   -0.6360 C   0  0  0  0  0  0  0  0  0  0  0  0
    1.8433    1.3260   -0.0452 C   0  0  0  0  0  0  0  0  0  0  0  0
   -8.6942    1.6399   -1.3701 C   0  0  0  0  0  0  0  0  0  0  0  0
   -7.5226    1.3922    0.8575 C   0  0  0  0  0  0  0  0  0  0  0  0
    3.1469    0.5803   -0.0539 C   0  0  0  0  0  0  0  0  0  0  0  0
    4.3120    1.2444   -0.0334 C   0  0  0  0  0  0  0  0  0  0  0  0
    5.6389    0.6040   -0.0542 C   0  0  0  0  0  0  0  0  0  0  0  0
    5.7735   -0.7339    0.3169 C   0  0  0  0  0  0  0  0  0  0  0  0
    6.7604    1.3355   -0.4450 C   0  0  0  0  0  0  0  0  0  0  0  0
    7.0295   -1.3402    0.2972 C   0  0  0  0  0  0  0  0  0  0  0  0
    8.0165    0.7294   -0.4646 C   0  0  0  0  0  0  0  0  0  0  0  0
    8.1510   -0.6085   -0.0935 C   0  0  0  0  0  0  0  0  0  0  0  0
   -5.3875   -1.8248   -0.9441 H   0  0  0  0  0  0  0  0  0  0  0  0
   -6.0499   -1.2998    0.6047 H   0  0  0  0  0  0  0  0  0  0  0  0
   -4.3766   -0.6746    2.5886 H   0  0  0  0  0  0  0  0  0  0  0  0
   -4.2823   -3.7586    0.2906 H   0  0  0  0  0  0  0  0  0  0  0  0
   -4.8708   -3.1711    1.8608 H   0  0  0  0  0  0  0  0  0  0  0  0
   -3.1371   -3.4394    1.5811 H   0  0  0  0  0  0  0  0  0  0  0  0
   -4.8393    0.9549    0.2714 H   0  0  0  0  0  0  0  0  0  0  0  0
   -4.2701    0.3677   -1.2692 H   0  0  0  0  0  0  0  0  0  0  0  0
   -2.3574    0.6359    2.7752 H   0  0  0  0  0  0  0  0  0  0  0  0
   -6.3589    0.5780   -2.2948 H   0  0  0  0  0  0  0  0  0  0  0  0
    1.1001   -0.3325   -1.9973 H   0  0  0  0  0  0  0  0  0  0  0  0
   -9.5566    1.0560   -1.0330 H   0  0  0  0  0  0  0  0  0  0  0  0
   -8.5927    1.4940   -2.4505 H   0  0  0  0  0  0  0  0  0  0  0  0
   -8.8979    2.7009   -1.1934 H   0  0  0  0  0  0  0  0  0  0  0  0
   -6.6651    0.9968    1.4055 H   0  0  0  0  0  0  0  0  0  0  0  0
   -8.4084    0.8810    1.2506 H   0  0  0  0  0  0  0  0  0  0  0  0
   -7.6080    2.4563    1.1024 H   0  0  0  0  0  0  0  0  0  0  0  0
    0.7729    1.9057    1.8989 H   0  0  0  0  0  0  0  0  0  0  0  0
   -0.2623   -1.7414   -2.9501 H   0  0  0  0  0  0  0  0  0  0  0  0
    3.0806   -0.5008   -0.0913 H   0  0  0  0  0  0  0  0  0  0  0  0
    4.3227    2.3316   -0.0178 H   0  0  0  0  0  0  0  0  0  0  0  0
    4.9330   -1.3368    0.6477 H   0  0  0  0  0  0  0  0  0  0  0  0
    6.6740    2.3788   -0.7388 H   0  0  0  0  0  0  0  0  0  0  0  0
    7.1294   -2.3814    0.5916 H   0  0  0  0  0  0  0  0  0  0  0  0
    8.8823    1.3101   -0.7712 H   0  0  0  0  0  0  0  0  0  0  0  0
   10.0363   -0.5486   -0.4071 H   0  0  0  0  0  0  0  0  0  0  0  0
  1  6  1  0  0  0  0
  1 11  1  0  0  0  0
  2 14  1  0  0  0  0
  2 48  1  0  0  0  0
  3 15  1  0  0  0  0
  3 49  1  0  0  0  0
  4 20  2  0  0  0  0
  5 30  1  0  0  0  0
  5 56  1  0  0  0  0
  6  7  1  0  0  0  0
  6  8  1  0  0  0  0
  6  9  1  0  0  0  0
  7 10  1  0  0  0  0
  7 31  1  0  0  0  0
  7 32  1  0  0  0  0
  8 13  2  0  0  0  0
  8 33  1  0  0  0  0
  9 34  1  0  0  0  0
  9 35  1  0  0  0  0
  9 36  1  0  0  0  0
 10 16  1  0  0  0  0
 10 37  1  0  0  0  0
 10 38  1  0  0  0  0
 11 12  1  0  0  0  0
 11 15  2  0  0  0  0
 12 13  1  0  0  0  0
 12 14  2  0  0  0  0
 13 39  1  0  0  0  0
 14 17  1  0  0  0  0
 15 18  1  0  0  0  0
 16 19  2  0  0  0  0
 16 40  1  0  0  0  0
 17 18  2  0  0  0  0
 17 20  1  0  0  0  0
 18 41  1  0  0  0  0
 19 21  1  0  0  0  0
 19 22  1  0  0  0  0
 20 23  1  0  0  0  0
 21 42  1  0  0  0  0
 21 43  1  0  0  0  0
 21 44  1  0  0  0  0
 22 45  1  0  0  0  0
 22 46  1  0  0  0  0
 22 47  1  0  0  0  0
 23 24  2  0  0  0  0
 23 50  1  0  0  0  0
 24 25  1  0  0  0  0
 24 51  1  0  0  0  0
 25 26  2  0  0  0  0
 25 27  1  0  0  0  0
 26 28  1  0  0  0  0
 26 52  1  0  0  0  0
 27 29  2  0  0  0  0
 27 53  1  0  0  0  0
 28 30  2  0  0  0  0
 28 54  1  0  0  0  0
 29 30  1  0  0  0  0
 29 55  1  0  0  0  0
M  END
> <PUBCHEM_COMPOUND_CID>
24776964

> <PUBCHEM_CONFORMER_RMSD>
0.8

> <PUBCHEM_CONFORMER_DIVERSEORDER>
3
193
138
17
93
279
177
281
208
39
28
256
52
71
250
10
58
168
163
4
57
221
209
83
147
8
85
257
43
258
69
109
278
195
6
205
197
199
194
190
154
27
116
198
11
144
178
222
35
50
287
184
80
45
164
182
89
16
264
219
176
202
104
237
22
227
53
2
238
112
224
259
91
77
31
228
266
38
240
75
135
70
42
159
165
96
78
226
23
262
72
48
14
196
167
47
54
225
187
129
127
46
73
276
204
134
185
263
243
162
203
143
49
288
118
100
216
212
229
110
284
117
289
155
68
34
86
98
79
244
97
122
267
5
270
133
119
232
158
274
175
172
92
169
124
113
139
236
146
248
121
180
64
55
99
37
211
67
61
273
9
283
94
128
153
82
179
223
210
12
255
207
201
132
60
101
181
36
241
95
103
206
245
272
106
13
32
21
215
145
286
271
65
285
90
125
247
40
102
254
81
140
261
183
280
230
149
84
19
235
150
157
41
63
142
66
108
130
59
62
171
30
233
249
29
260
282
141
51
173
126
234
7
265
115
87
137
44
161
15
277
20
217
166
268
188
160
25
275
1
239
170
246
24
152
123
131
26
252
151
136
120
214
269
114
200
218
231
111
156
74
18
148
220
33
105
251
242
253
192
213
189
76
56
107
174
88
186
191

> <PUBCHEM_MMFF94_PARTIAL_CHARGES>
41
1 -0.36
10 0.14
11 0.08
12 0.03
13 -0.18
14 0.08
15 0.08
16 -0.29
17 0.09
18 -0.15
19 -0.28
2 -0.53
20 0.47
21 0.14
22 0.14
23 -0.14
24 -0.18
25 0.03
26 -0.15
27 -0.15
28 -0.15
29 -0.15
3 -0.53
30 0.08
33 0.15
39 0.15
4 -0.57
40 0.15
41 0.15
48 0.45
49 0.45
5 -0.53
50 0.15
51 0.15
52 0.15
53 0.15
54 0.15
55 0.15
56 0.45
6 0.42
8 -0.29

> <PUBCHEM_EFFECTIVE_ROTOR_COUNT>
6.4

> <PUBCHEM_PHARMACOPHORE_FEATURES>
9
1 1 acceptor
1 2 donor
1 3 donor
1 4 acceptor
1 5 donor
3 19 21 22 hydrophobe
6 1 6 8 11 12 13 rings
6 11 12 14 15 17 18 rings
6 25 26 27 28 29 30 rings

> <PUBCHEM_HEAVY_ATOM_COUNT>
30

> <PUBCHEM_ATOM_DEF_STEREO_COUNT>
0

> <PUBCHEM_ATOM_UDEF_STEREO_COUNT>
1

> <PUBCHEM_BOND_DEF_STEREO_COUNT>
1

> <PUBCHEM_BOND_UDEF_STEREO_COUNT>
0

> <PUBCHEM_ISOTOPIC_ATOM_COUNT>
0

> <PUBCHEM_COMPONENT_COUNT>
1

> <PUBCHEM_CACTVS_TAUTO_COUNT>
40

> <PUBCHEM_CONFORMER_ID>
017A110400000003

> <PUBCHEM_MMFF94_ENERGY>
90.8784

> <PUBCHEM_FEATURE_SELFOVERLAP>
45.701

> <PUBCHEM_SHAPE_FINGERPRINT>
10 15 9511461126137183028
106641 1 11672057554379066640
10670039 82 18340482284700413161
10674148 151 17095239224919438568
10930396 42 16916200219045879754
11135926 11 16773802502719091007
11181472 205 18338246977059802884
11211813 89 18410009932135480372
11315181 36 17917435362214725611
11408170 108 17060067999635758214
12236239 1 18271533091273810192
12539745 222 18262815076884460067
12758862 11 18411695513104094081
12838862 33 17774993588466998166
13885169 127 18187082857943555844
13914758 101 18202284680224375681
14117953 113 18059859454943247844
14444916 359 15285357301600798209
14856354 85 14490478603901408003
15131766 46 17906732858445526364
15142383 8 18409165524353634068
15183329 4 18260542312259086361
15347591 1 18192434297089891837
15461852 350 15698002933142067328
15475509 8 16587742023431388708
15728490 51 9943514224788723849
18335252 98 8718829803586104156
18608769 82 9007051366195834245
19841028 212 18114740435715475074
20105231 36 13840265870901755992
20721686 146 16516793764539741485
21365058 27 14490471976429747945
21792934 111 18271796927131527504
21792961 116 18202565099483247635
21792965 131 13182736987905832156
21814621 53 18262518233333135144
22224240 67 13110966422753493332
23559900 14 18337105790720541920
24180151 40 17059222419022020859
249057 25 13470412226664645971
249057 3 18260547831582218445
2838139 119 18410288130321520549
3009799 131 17561080306990598249
3633792 109 18130508531056137359
4017518 198 16988566810221592006
4098825 35 17821444682049528948
4144715 1 17825109470016017049
4325135 7 10952046758328153429
437815 12 17531247305154448604
474113 269 17846213303073421934
5381727 24 18259984886778209387
57527293 21 17834137586299689507
57527358 35 17825679012896919533
59682541 35 9151165463365704581
6009941 240 18260551138496039899
6126387 218 18411414021279394512
6394761 36 18410853252578489852
6691757 9 16271933756635202438

> <PUBCHEM_SHAPE_MULTIPOLES>
588.04
26.27
2.15
1.49
24.87
0.69
-0.06
-5.06
4.4
-2.08
-0.11
-2.03
0.18
1.02

> <PUBCHEM_SHAPE_SELFOVERLAP>
1264.068

> <PUBCHEM_SHAPE_VOLUME>
324.1

> <PUBCHEM_COORDINATE_TYPE>
2
5
10

$$$$
