5376772
  -OEChem-09112003363D

 62 63  0     0  0  0  0  0  0999 V2000
    1.3490    0.1290   -2.1382 O   0  0  0  0  0  0  0  0  0  0  0  0
    2.8046    3.5547    1.9334 O   0  0  0  0  0  0  0  0  0  0  0  0
    4.6354    1.7365    0.9401 O   0  0  0  0  0  0  0  0  0  0  0  0
   -0.8348    2.7379   -2.0916 O   0  0  0  0  0  0  0  0  0  0  0  0
   -5.1489    0.3769   -2.5264 O   0  0  0  0  0  0  0  0  0  0  0  0
   -4.9596   -1.0682    2.7921 O   0  0  0  0  0  0  0  0  0  0  0  0
    3.9890   -0.0645   -1.1472 C   0  0  0  0  0  0  0  0  0  0  0  0
    3.6694   -3.8817   -0.1198 C   0  0  0  0  0  0  0  0  0  0  0  0
    3.6549   -2.5937   -0.9164 C   0  0  0  0  0  0  0  0  0  0  0  0
    2.9940    0.9292   -0.6017 C   0  0  0  0  0  0  0  0  0  0  0  0
    3.9444   -1.3767   -0.4153 C   0  0  0  0  0  0  0  0  0  0  0  0
    2.2966   -4.2802    0.4379 C   0  0  0  0  0  0  0  0  0  0  0  0
    1.7113    0.9754   -1.1311 C   0  0  0  0  0  0  0  0  0  0  0  0
    3.3743    1.7852    0.4231 C   0  0  0  0  0  0  0  0  0  0  0  0
    0.7916    1.8945   -0.6260 C   0  0  0  0  0  0  0  0  0  0  0  0
    3.3242   -2.7469   -2.3790 C   0  0  0  0  0  0  0  0  0  0  0  0
    2.4547    2.7045    0.9280 C   0  0  0  0  0  0  0  0  0  0  0  0
    1.1633    2.7591    0.4034 C   0  0  0  0  0  0  0  0  0  0  0  0
    1.7861   -3.3076    1.4648 C   0  0  0  0  0  0  0  0  0  0  0  0
    0.6474   -2.5899    1.4374 C   0  0  0  0  0  0  0  0  0  0  0  0
   -0.5621    1.9697   -1.1583 C   0  0  0  0  0  0  0  0  0  0  0  0
   -0.3061   -2.7216    0.2795 C   0  0  0  0  0  0  0  0  0  0  0  0
    0.1972   -1.6317    2.5031 C   0  0  0  0  0  0  0  0  0  0  0  0
   -1.6282    1.1183   -0.5304 C   0  0  0  0  0  0  0  0  0  0  0  0
   -2.8938    1.1761   -0.9706 C   0  0  0  0  0  0  0  0  0  0  0  0
   -4.0094    0.3929   -0.4109 C   0  0  0  0  0  0  0  0  0  0  0  0
    1.8050    4.4629    2.3914 C   0  0  0  0  0  0  0  0  0  0  0  0
   -5.0826    0.0290   -1.2093 C   0  0  0  0  0  0  0  0  0  0  0  0
   -3.9551    0.0331    0.9273 C   0  0  0  0  0  0  0  0  0  0  0  0
   -4.9995   -0.7084    1.4799 C   0  0  0  0  0  0  0  0  0  0  0  0
   -6.1268   -0.7125   -0.6569 C   0  0  0  0  0  0  0  0  0  0  0  0
   -6.0854   -1.0812    0.6878 C   0  0  0  0  0  0  0  0  0  0  0  0
    5.0061    0.3348   -1.0326 H   0  0  0  0  0  0  0  0  0  0  0  0
    3.8863   -0.1326   -2.2320 H   0  0  0  0  0  0  0  0  0  0  0  0
    4.0597   -4.6964   -0.7423 H   0  0  0  0  0  0  0  0  0  0  0  0
    4.3818   -3.7849    0.7108 H   0  0  0  0  0  0  0  0  0  0  0  0
    4.2008   -1.3225    0.6425 H   0  0  0  0  0  0  0  0  0  0  0  0
    1.6040   -4.4201   -0.3963 H   0  0  0  0  0  0  0  0  0  0  0  0
    2.3902   -5.2590    0.9246 H   0  0  0  0  0  0  0  0  0  0  0  0
    2.2531   -2.9397   -2.5003 H   0  0  0  0  0  0  0  0  0  0  0  0
    3.5961   -1.9072   -3.0173 H   0  0  0  0  0  0  0  0  0  0  0  0
    3.8640   -3.6080   -2.7905 H   0  0  0  0  0  0  0  0  0  0  0  0
    0.4055    3.4522    0.7545 H   0  0  0  0  0  0  0  0  0  0  0  0
    2.4316   -3.1856    2.3340 H   0  0  0  0  0  0  0  0  0  0  0  0
    1.9013   -0.6647   -2.1270 H   0  0  0  0  0  0  0  0  0  0  0  0
    4.7061    2.4066    1.6420 H   0  0  0  0  0  0  0  0  0  0  0  0
   -0.3504   -3.7347   -0.1283 H   0  0  0  0  0  0  0  0  0  0  0  0
   -0.0338   -2.0225   -0.5173 H   0  0  0  0  0  0  0  0  0  0  0  0
   -1.3289   -2.4852    0.5953 H   0  0  0  0  0  0  0  0  0  0  0  0
    0.0839   -0.6257    2.0873 H   0  0  0  0  0  0  0  0  0  0  0  0
    0.9213   -1.5737    3.3224 H   0  0  0  0  0  0  0  0  0  0  0  0
   -0.7615   -1.9484    2.9263 H   0  0  0  0  0  0  0  0  0  0  0  0
   -1.3103    0.4637    0.2730 H   0  0  0  0  0  0  0  0  0  0  0  0
   -3.1534    1.8362   -1.7944 H   0  0  0  0  0  0  0  0  0  0  0  0
    2.2555    5.0609    3.1905 H   0  0  0  0  0  0  0  0  0  0  0  0
    1.5031    5.1621    1.6041 H   0  0  0  0  0  0  0  0  0  0  0  0
    0.9519    3.9360    2.8324 H   0  0  0  0  0  0  0  0  0  0  0  0
   -3.1307    0.3282    1.5709 H   0  0  0  0  0  0  0  0  0  0  0  0
   -6.9795   -1.0101   -1.2616 H   0  0  0  0  0  0  0  0  0  0  0  0
   -6.9019   -1.6588    1.1127 H   0  0  0  0  0  0  0  0  0  0  0  0
   -5.9737    0.0293   -2.9067 H   0  0  0  0  0  0  0  0  0  0  0  0
   -4.1371   -0.7318    3.1877 H   0  0  0  0  0  0  0  0  0  0  0  0
  1 13  1  0  0  0  0
  1 45  1  0  0  0  0
  2 17  1  0  0  0  0
  2 27  1  0  0  0  0
  3 14  1  0  0  0  0
  3 46  1  0  0  0  0
  4 21  2  0  0  0  0
  5 28  1  0  0  0  0
  5 61  1  0  0  0  0
  6 30  1  0  0  0  0
  6 62  1  0  0  0  0
  7 10  1  0  0  0  0
  7 11  1  0  0  0  0
  7 33  1  0  0  0  0
  7 34  1  0  0  0  0
  8  9  1  0  0  0  0
  8 12  1  0  0  0  0
  8 35  1  0  0  0  0
  8 36  1  0  0  0  0
  9 11  2  0  0  0  0
  9 16  1  0  0  0  0
 10 13  2  0  0  0  0
 10 14  1  0  0  0  0
 11 37  1  0  0  0  0
 12 19  1  0  0  0  0
 12 38  1  0  0  0  0
 12 39  1  0  0  0  0
 13 15  1  0  0  0  0
 14 17  2  0  0  0  0
 15 18  2  0  0  0  0
 15 21  1  0  0  0  0
 16 40  1  0  0  0  0
 16 41  1  0  0  0  0
 16 42  1  0  0  0  0
 17 18  1  0  0  0  0
 18 43  1  0  0  0  0
 19 20  2  0  0  0  0
 19 44  1  0  0  0  0
 20 22  1  0  0  0  0
 20 23  1  0  0  0  0
 21 24  1  0  0  0  0
 22 47  1  0  0  0  0
 22 48  1  0  0  0  0
 22 49  1  0  0  0  0
 23 50  1  0  0  0  0
 23 51  1  0  0  0  0
 23 52  1  0  0  0  0
 24 25  2  0  0  0  0
 24 53  1  0  0  0  0
 25 26  1  0  0  0  0
 25 54  1  0  0  0  0
 26 28  2  0  0  0  0
 26 29  1  0  0  0  0
 27 55  1  0  0  0  0
 27 56  1  0  0  0  0
 27 57  1  0  0  0  0
 28 31  1  0  0  0  0
 29 30  2  0  0  0  0
 29 58  1  0  0  0  0
 30 32  1  0  0  0  0
 31 32  2  0  0  0  0
 31 59  1  0  0  0  0
 32 60  1  0  0  0  0
M  END
> <PUBCHEM_COMPOUND_CID>
5376772

> <PUBCHEM_CONFORMER_RMSD>
1.2

> <PUBCHEM_CONFORMER_DIVERSEORDER>
4
107
165
307
173
127
160
67
178
63
194
204
303
181
245
294
210
255
143
312
236
54
258
192
311
12
69
161
68
18
260
299
124
267
177
182
116
218
219
284
279
271
13
149
205
100
275
119
189
129
268
315
84
56
5
266
261
77
310
257
234
167
309
79
291
61
297
281
147
168
118
285
293
102
193
108
240
314
207
152
241
166
138
70
172
253
230
215
211
254
134
244
304
316
1
321
125
320
46
247
286
171
319
170
37
75
71
269
186
137
95
52
235
183
273
323
16
97
176
265
126
217
180
264
200
27
313
326
89
76
30
325
154
157
185
198
274
86
65
306
206
80
322
190
259
139
243
87
225
151
201
72
208
221
292
228
188
142
145
99
57
34
31
26
250
308
298
22
45
133
98
272
158
229
222
169
270
39
112
302
287
231
141
11
123
199
226
213
278
96
282
197
58
248
53
120
82
73
59
296
242
202
20
132
224
184
146
288
122
136
305
159
74
32
209
280
317
162
23
47
212
295
131
42
48
94
327
187
17
110
49
195
251
318
90
88
220
196
239
29
283
36
179
40
25
163
21
174
150
106
33
191
51
50
64
277
289
223
10
232
9
128
62
83
103
91
113
301
203
214
28
8
237
35
276
41
300
7
117
175
109
144
6
252
55
78
3
249
153
115
104
262
324
19
164
246
216
66
290
14
130
44
92
60
256
15
329
155
101
43
238
135
227
38
2
105
93
328
81
156
140
114
148
263
233
24
111
121
85

> <PUBCHEM_MMFF94_PARTIAL_CHARGES>
44
1 -0.53
10 -0.14
11 -0.29
12 0.14
13 0.08
14 0.08
15 0.09
16 0.14
17 0.08
18 -0.15
19 -0.29
2 -0.36
20 -0.28
21 0.47
22 0.14
23 0.14
24 -0.14
25 -0.18
26 0.03
27 0.28
28 0.08
29 -0.15
3 -0.53
30 0.08
31 -0.15
32 -0.15
37 0.15
4 -0.57
43 0.15
44 0.15
45 0.45
46 0.45
5 -0.53
53 0.15
54 0.15
58 0.15
59 0.15
6 -0.53
60 0.15
61 0.45
62 0.45
7 0.28
8 0.14
9 -0.28

> <PUBCHEM_EFFECTIVE_ROTOR_COUNT>
9

> <PUBCHEM_PHARMACOPHORE_FEATURES>
11
1 1 donor
1 16 hydrophobe
1 2 acceptor
1 3 donor
1 4 acceptor
1 5 donor
1 6 donor
3 20 22 23 hydrophobe
4 8 9 12 19 hydrophobe
6 10 13 14 15 17 18 rings
6 26 28 29 30 31 32 rings

> <PUBCHEM_HEAVY_ATOM_COUNT>
32

> <PUBCHEM_ATOM_DEF_STEREO_COUNT>
0

> <PUBCHEM_ATOM_UDEF_STEREO_COUNT>
0

> <PUBCHEM_BOND_DEF_STEREO_COUNT>
2

> <PUBCHEM_BOND_UDEF_STEREO_COUNT>
0

> <PUBCHEM_ISOTOPIC_ATOM_COUNT>
0

> <PUBCHEM_COMPONENT_COUNT>
1

> <PUBCHEM_CACTVS_TAUTO_COUNT>
147

> <PUBCHEM_CONFORMER_ID>
00520B0400000004

> <PUBCHEM_MMFF94_ENERGY>
93.0907

> <PUBCHEM_FEATURE_SELFOVERLAP>
55.827

> <PUBCHEM_SHAPE_FINGERPRINT>
10816530 23 17623562464394344120
114674 6 18408321094690548322
12597179 24 18124871519867054624
13402501 40 18259991495762284466
13561361 72 17535767500667800851
15968369 26 17967525787629477478
17138139 8 17972611983087546006
17909252 39 18191028906576668762
20028762 73 18048033270894215751
20775438 99 18336530720786902215
23559900 14 17968093089186480045
23845131 108 17551775341716838056
238918 7 18188207735669489539
3298306 158 17822004350737456979
3737641 26 18263653882984206089
463206 1 17611751098281994444
508706 21 17459195230424218395
5265222 85 17971201554545380036
550186 83 16733260265352991477
6376802 137 18122621648778600346
6669772 16 18340481296028883050
86090 222 18260557752772166739

> <PUBCHEM_SHAPE_MULTIPOLES>
623.33
11.85
5.44
2.44
19.84
0.07
0.42
4.73
-1.07
-8.31
2.69
0.72
-0.32
2.9

> <PUBCHEM_SHAPE_SELFOVERLAP>
1309.026

> <PUBCHEM_SHAPE_VOLUME>
351.4

> <PUBCHEM_COORDINATE_TYPE>
2
5
10

$$$$
