127234
  -OEChem-09112002463D

 59 61  0     1  0  0  0  0  0999 V2000
   -1.1329    0.0335    0.3450 O   0  0  0  0  0  0  0  0  0  0  0  0
    2.8024    2.8139   -0.2138 O   0  0  0  0  0  0  0  0  0  0  0  0
    3.1701   -1.6320    1.4501 O   0  0  0  0  0  0  0  0  0  0  0  0
    0.4382    3.6182   -0.8847 O   0  0  0  0  0  0  0  0  0  0  0  0
   -3.0273   -0.0016   -1.9343 O   0  0  0  0  0  0  0  0  0  0  0  0
   -7.3942   -0.1420   -0.0309 O   0  0  0  0  0  0  0  0  0  0  0  0
   -1.9155    1.2363    0.4029 C   0  0  1  0  0  0  0  0  0  0  0  0
   -1.4981    2.2149   -0.6931 C   0  0  0  0  0  0  0  0  0  0  0  0
    0.2155    0.2700    0.4203 C   0  0  0  0  0  0  0  0  0  0  0  0
    0.8088    1.4766    0.0375 C   0  0  0  0  0  0  0  0  0  0  0  0
    1.0120   -0.7792    0.8811 C   0  0  0  0  0  0  0  0  0  0  0  0
   -0.0385    2.5484   -0.5249 C   0  0  0  0  0  0  0  0  0  0  0  0
    2.9799    0.6032    0.6265 C   0  0  0  0  0  0  0  0  0  0  0  0
    2.1910    1.6489    0.1457 C   0  0  0  0  0  0  0  0  0  0  0  0
   -3.3773    0.8629    0.2738 C   0  0  0  0  0  0  0  0  0  0  0  0
    2.3926   -0.6096    0.9886 C   0  0  0  0  0  0  0  0  0  0  0  0
    0.3914   -2.0835    1.2719 C   0  0  0  0  0  0  0  0  0  0  0  0
    4.4606    0.7779    0.7510 C   0  0  0  0  0  0  0  0  0  0  0  0
   -3.8608    0.2624   -0.8893 C   0  0  0  0  0  0  0  0  0  0  0  0
   -4.2454    1.1253    1.3344 C   0  0  0  0  0  0  0  0  0  0  0  0
    0.2967   -3.0527    0.1214 C   0  0  0  0  0  0  0  0  0  0  0  0
    5.2032    0.3742   -0.4971 C   0  0  0  0  0  0  0  0  0  0  0  0
   -5.2102   -0.0752   -0.9917 C   0  0  0  0  0  0  0  0  0  0  0  0
   -5.5948    0.7877    1.2319 C   0  0  0  0  0  0  0  0  0  0  0  0
   -0.8123   -3.5914   -0.4206 C   0  0  0  0  0  0  0  0  0  0  0  0
   -6.0773    0.1874    0.0689 C   0  0  0  0  0  0  0  0  0  0  0  0
    6.4404   -0.1491   -0.5940 C   0  0  0  0  0  0  0  0  0  0  0  0
   -0.8347   -4.5561   -1.5722 C   0  0  0  0  0  0  0  0  0  0  0  0
   -2.1718   -3.2503    0.1295 C   0  0  0  0  0  0  0  0  0  0  0  0
    7.1232   -0.5304   -1.8767 C   0  0  0  0  0  0  0  0  0  0  0  0
    7.2651   -0.3884    0.6428 C   0  0  0  0  0  0  0  0  0  0  0  0
   -1.7483    1.6937    1.3893 H   0  0  0  0  0  0  0  0  0  0  0  0
   -2.0786    3.1409   -0.6060 H   0  0  0  0  0  0  0  0  0  0  0  0
   -1.6002    1.8417   -1.7145 H   0  0  0  0  0  0  0  0  0  0  0  0
    0.9973   -2.5656    2.0511 H   0  0  0  0  0  0  0  0  0  0  0  0
   -0.5549   -1.9055    1.7876 H   0  0  0  0  0  0  0  0  0  0  0  0
    4.7064    1.8217    0.9839 H   0  0  0  0  0  0  0  0  0  0  0  0
    4.8145    0.2372    1.6354 H   0  0  0  0  0  0  0  0  0  0  0  0
   -3.8863    1.5922    2.2476 H   0  0  0  0  0  0  0  0  0  0  0  0
    1.2538   -3.3479   -0.3083 H   0  0  0  0  0  0  0  0  0  0  0  0
    4.6734    0.5458   -1.4342 H   0  0  0  0  0  0  0  0  0  0  0  0
    3.6895    2.6362   -0.5646 H   0  0  0  0  0  0  0  0  0  0  0  0
   -5.5799   -0.5434   -1.9007 H   0  0  0  0  0  0  0  0  0  0  0  0
   -6.2655    0.9946    2.0615 H   0  0  0  0  0  0  0  0  0  0  0  0
    4.0711   -1.5602    1.0976 H   0  0  0  0  0  0  0  0  0  0  0  0
   -2.1383   -0.1904   -1.5898 H   0  0  0  0  0  0  0  0  0  0  0  0
    0.1762   -4.7843   -1.9257 H   0  0  0  0  0  0  0  0  0  0  0  0
   -1.3050   -5.4980   -1.2722 H   0  0  0  0  0  0  0  0  0  0  0  0
   -1.3958   -4.1352   -2.4126 H   0  0  0  0  0  0  0  0  0  0  0  0
   -2.2044   -2.4386    0.8543 H   0  0  0  0  0  0  0  0  0  0  0  0
   -2.8335   -2.9501   -0.6911 H   0  0  0  0  0  0  0  0  0  0  0  0
   -2.6094   -4.1348    0.6049 H   0  0  0  0  0  0  0  0  0  0  0  0
    6.4783   -0.3545   -2.7440 H   0  0  0  0  0  0  0  0  0  0  0  0
    8.0364    0.0571   -2.0144 H   0  0  0  0  0  0  0  0  0  0  0  0
    7.3871   -1.5928   -1.8665 H   0  0  0  0  0  0  0  0  0  0  0  0
    6.9130    0.1480    1.5268 H   0  0  0  0  0  0  0  0  0  0  0  0
    7.2919   -1.4582    0.8742 H   0  0  0  0  0  0  0  0  0  0  0  0
    8.2946   -0.0513    0.4764 H   0  0  0  0  0  0  0  0  0  0  0  0
   -7.5528   -0.5470   -0.9008 H   0  0  0  0  0  0  0  0  0  0  0  0
  1  7  1  0  0  0  0
  1  9  1  0  0  0  0
  2 14  1  0  0  0  0
  2 42  1  0  0  0  0
  3 16  1  0  0  0  0
  3 45  1  0  0  0  0
  4 12  2  0  0  0  0
  5 19  1  0  0  0  0
  5 46  1  0  0  0  0
  6 26  1  0  0  0  0
  6 59  1  0  0  0  0
  7  8  1  0  0  0  0
  7 15  1  0  0  0  0
  7 32  1  0  0  0  0
  8 12  1  0  0  0  0
  8 33  1  0  0  0  0
  8 34  1  0  0  0  0
  9 10  1  0  0  0  0
  9 11  2  0  0  0  0
 10 12  1  0  0  0  0
 10 14  2  0  0  0  0
 11 16  1  0  0  0  0
 11 17  1  0  0  0  0
 13 14  1  0  0  0  0
 13 16  2  0  0  0  0
 13 18  1  0  0  0  0
 15 19  2  0  0  0  0
 15 20  1  0  0  0  0
 17 21  1  0  0  0  0
 17 35  1  0  0  0  0
 17 36  1  0  0  0  0
 18 22  1  0  0  0  0
 18 37  1  0  0  0  0
 18 38  1  0  0  0  0
 19 23  1  0  0  0  0
 20 24  2  0  0  0  0
 20 39  1  0  0  0  0
 21 25  2  0  0  0  0
 21 40  1  0  0  0  0
 22 27  2  0  0  0  0
 22 41  1  0  0  0  0
 23 26  2  0  0  0  0
 23 43  1  0  0  0  0
 24 26  1  0  0  0  0
 24 44  1  0  0  0  0
 25 28  1  0  0  0  0
 25 29  1  0  0  0  0
 27 30  1  0  0  0  0
 27 31  1  0  0  0  0
 28 47  1  0  0  0  0
 28 48  1  0  0  0  0
 28 49  1  0  0  0  0
 29 50  1  0  0  0  0
 29 51  1  0  0  0  0
 29 52  1  0  0  0  0
 30 53  1  0  0  0  0
 30 54  1  0  0  0  0
 30 55  1  0  0  0  0
 31 56  1  0  0  0  0
 31 57  1  0  0  0  0
 31 58  1  0  0  0  0
M  END
> <PUBCHEM_COMPOUND_CID>
127234

> <PUBCHEM_CONFORMER_RMSD>
0.8

> <PUBCHEM_CONFORMER_DIVERSEORDER>
2
106
65
98
73
86
231
74
208
150
215
191
202
27
217
127
140
229
148
200
80
110
176
104
225
116
75
237
164
43
156
49
160
239
172
143
201
211
45
108
204
181
197
134
38
192
233
133
222
121
112
151
145
173
42
123
68
10
67
92
209
139
162
226
141
195
22
183
31
175
15
28
220
94
128
194
102
207
155
124
113
161
47
101
95
212
24
199
166
163
46
35
33
219
137
203
105
213
210
174
117
187
157
178
235
234
41
129
91
88
171
5
185
32
154
93
224
34
206
184
61
56
153
40
189
218
103
78
230
119
179
132
196
17
70
66
115
149
63
188
11
130
144
142
159
186
180
57
114
236
97
71
158
90
96
182
77
135
168
216
147
221
152
111
177
136
59
21
55
9
16
26
37
39
167
100
238
138
120
84
232
118
107
8
18
89
122
83
52
205
223
76
60
146
198
62
1
72
7
214
54
36
99
85
30
131
23
169
87
125
165
81
64
3
190
51
29
227
69
19
82
126
25
20
12
109
48
6
170
228
79
58
53
14
193
13
50
4
44

> <PUBCHEM_MMFF94_PARTIAL_CHARGES>
40
1 -0.36
10 0.09
11 -0.14
12 0.42
13 -0.14
14 0.08
15 -0.14
16 0.08
17 0.28
18 0.28
19 0.08
2 -0.53
20 -0.15
21 -0.29
22 -0.29
23 -0.15
24 -0.15
25 -0.28
26 0.08
27 -0.28
28 0.14
29 0.14
3 -0.53
30 0.14
31 0.14
39 0.15
4 -0.57
40 0.15
41 0.15
42 0.45
43 0.15
44 0.15
45 0.45
46 0.45
5 -0.53
59 0.45
6 -0.53
7 0.42
8 0.06
9 0.08

> <PUBCHEM_EFFECTIVE_ROTOR_COUNT>
5.6

> <PUBCHEM_PHARMACOPHORE_FEATURES>
11
1 1 acceptor
1 2 donor
1 3 donor
1 4 acceptor
1 5 donor
1 6 donor
3 25 28 29 hydrophobe
3 27 30 31 hydrophobe
6 1 7 8 9 10 12 rings
6 15 19 20 23 24 26 rings
6 9 10 11 13 14 16 rings

> <PUBCHEM_HEAVY_ATOM_COUNT>
31

> <PUBCHEM_ATOM_DEF_STEREO_COUNT>
1

> <PUBCHEM_ATOM_UDEF_STEREO_COUNT>
0

> <PUBCHEM_BOND_DEF_STEREO_COUNT>
0

> <PUBCHEM_BOND_UDEF_STEREO_COUNT>
0

> <PUBCHEM_ISOTOPIC_ATOM_COUNT>
0

> <PUBCHEM_COMPONENT_COUNT>
1

> <PUBCHEM_CACTVS_TAUTO_COUNT>
189

> <PUBCHEM_CONFORMER_ID>
0001F10200000002

> <PUBCHEM_MMFF94_ENERGY>
85.9059

> <PUBCHEM_FEATURE_SELFOVERLAP>
55.851

> <PUBCHEM_SHAPE_FINGERPRINT>
10674148 151 17703794687298562314
10906281 52 18042134154555816529
1100329 8 18336545044159105224
11421498 54 17917714544364605553
11578080 2 17557972120725777024
11991303 11 17676778659770182986
12011746 2 18187367627492751840
12156800 1 17975444565342575303
12236239 1 18130787880282915097
13140716 1 18190456245559285961
13911987 19 18188477004781453711
14117953 113 18409444787448444397
14289585 56 17822834464462013405
14790565 3 18409736127306293576
14840074 17 18260830380052495501
15131766 46 15214735786831402502
15183329 4 18411984650771542742
15297060 5 17917715712580619475
15849732 13 17603872217227569804
16090146 7 18201176402679352706
17138139 8 17626069270113580663
17492 54 18260818289841097267
18603816 31 17275096220420736478
18681886 176 18410851088062938881
19319366 153 17821726109739823754
20028762 73 18272368689613749279
20642791 13 17835222821191994368
21197605 99 18190749824835804155
21267235 1 18408326588075409473
21344244 181 18131079203783276678
21781051 124 18116169902834177267
22311459 1 18408603652658485112
23559900 14 18270959167784819624
23569914 2 13987725958497196414
23569917 315 18343026635779040015
23569943 247 17913219667743024534
23576562 1 17969230112362586292
3178227 256 18334024886293699337
335352 9 18408042935776717284
3383291 50 18272650198919166687
340366 18 18262523709732714388
4017518 198 18131638872002005894
404807 14 15261479049083328614
563151 248 17632857538116042847
58260988 647 17059792005306218774
59755656 215 18411140208334338190
59755656 520 18342455954477641079
6287921 2 17986107414692645115
6669772 16 18337956697284408862
9896288 288 17987246516880686849

> <PUBCHEM_SHAPE_MULTIPOLES>
602.75
15.09
3.94
1.37
7.69
4.02
0.24
-1.78
1.81
-1.02
1.29
0.27
0.37
-0.6

> <PUBCHEM_SHAPE_SELFOVERLAP>
1295.521

> <PUBCHEM_SHAPE_VOLUME>
333.3

> <PUBCHEM_COORDINATE_TYPE>
2
5
10

$$$$
