44260112
  -OEChem-09112002423D

 43 46  0     0  0  0  0  0  0999 V2000
   -3.7558   -1.6189   -0.2610 O   0  0  0  0  0  0  0  0  0  0  0  0
    0.9979   -1.0626   -0.1203 O   0  0  0  0  0  0  0  0  0  0  0  0
   -1.6769    2.6720    0.6541 O   0  0  0  0  0  0  0  0  0  0  0  0
    3.6346    2.0214   -0.6833 O   0  0  0  0  0  0  0  0  0  0  0  0
    7.2750   -0.9772   -0.0366 O   0  0  0  0  0  0  0  0  0  0  0  0
   -5.0816   -1.0581   -0.1591 C   0  0  0  0  0  0  0  0  0  0  0  0
   -2.7614    0.5576    0.2026 C   0  0  0  0  0  0  0  0  0  0  0  0
   -2.6664   -0.8085   -0.0853 C   0  0  0  0  0  0  0  0  0  0  0  0
   -0.3421    0.7173    0.2482 C   0  0  0  0  0  0  0  0  0  0  0  0
   -5.1529    0.4161    0.1569 C   0  0  0  0  0  0  0  0  0  0  0  0
   -1.5998    1.3343    0.3723 C   0  0  0  0  0  0  0  0  0  0  0  0
   -0.2955   -0.6417   -0.0379 C   0  0  0  0  0  0  0  0  0  0  0  0
   -4.0707    1.1777    0.3276 C   0  0  0  0  0  0  0  0  0  0  0  0
   -1.4225   -1.4416   -0.2122 C   0  0  0  0  0  0  0  0  0  0  0  0
   -5.8007   -1.8470    0.9415 C   0  0  0  0  0  0  0  0  0  0  0  0
   -5.7645   -1.3198   -1.5068 C   0  0  0  0  0  0  0  0  0  0  0  0
    1.0104    1.1388    0.3438 C   0  0  0  0  0  0  0  0  0  0  0  0
    1.7811    0.0229    0.1124 C   0  0  0  0  0  0  0  0  0  0  0  0
    3.1955   -0.2191    0.0690 C   0  0  0  0  0  0  0  0  0  0  0  0
    4.0811    0.7835   -0.3263 C   0  0  0  0  0  0  0  0  0  0  0  0
    3.6808   -1.4764    0.4288 C   0  0  0  0  0  0  0  0  0  0  0  0
   -1.7069    3.5605   -0.4574 C   0  0  0  0  0  0  0  0  0  0  0  0
    5.4522    0.5286   -0.3618 C   0  0  0  0  0  0  0  0  0  0  0  0
    5.0517   -1.7313    0.3930 C   0  0  0  0  0  0  0  0  0  0  0  0
    5.9374   -0.7287   -0.0023 C   0  0  0  0  0  0  0  0  0  0  0  0
   -6.1352    0.8730    0.2509 H   0  0  0  0  0  0  0  0  0  0  0  0
   -4.1714    2.2304    0.5610 H   0  0  0  0  0  0  0  0  0  0  0  0
   -1.3368   -2.4994   -0.4346 H   0  0  0  0  0  0  0  0  0  0  0  0
   -5.7744   -2.9228    0.7319 H   0  0  0  0  0  0  0  0  0  0  0  0
   -6.8477   -1.5428    1.0485 H   0  0  0  0  0  0  0  0  0  0  0  0
   -5.3021   -1.7100    1.9087 H   0  0  0  0  0  0  0  0  0  0  0  0
   -5.7379   -2.3868   -1.7578 H   0  0  0  0  0  0  0  0  0  0  0  0
   -5.2397   -0.8001   -2.3175 H   0  0  0  0  0  0  0  0  0  0  0  0
   -6.8099   -0.9919   -1.5086 H   0  0  0  0  0  0  0  0  0  0  0  0
    1.3597    2.1370    0.5681 H   0  0  0  0  0  0  0  0  0  0  0  0
    3.0168   -2.2754    0.7500 H   0  0  0  0  0  0  0  0  0  0  0  0
   -1.8596    4.5756   -0.0806 H   0  0  0  0  0  0  0  0  0  0  0  0
   -2.5270    3.3155   -1.1396 H   0  0  0  0  0  0  0  0  0  0  0  0
   -0.7543    3.5292   -0.9956 H   0  0  0  0  0  0  0  0  0  0  0  0
    6.1443    1.3089   -0.6696 H   0  0  0  0  0  0  0  0  0  0  0  0
    5.4243   -2.7120    0.6762 H   0  0  0  0  0  0  0  0  0  0  0  0
    4.3946    2.5781   -0.9248 H   0  0  0  0  0  0  0  0  0  0  0  0
    7.7378   -0.1744   -0.3321 H   0  0  0  0  0  0  0  0  0  0  0  0
  1  6  1  0  0  0  0
  1  8  1  0  0  0  0
  2 12  1  0  0  0  0
  2 18  1  0  0  0  0
  3 11  1  0  0  0  0
  3 22  1  0  0  0  0
  4 20  1  0  0  0  0
  4 42  1  0  0  0  0
  5 25  1  0  0  0  0
  5 43  1  0  0  0  0
  6 10  1  0  0  0  0
  6 15  1  0  0  0  0
  6 16  1  0  0  0  0
  7  8  2  0  0  0  0
  7 11  1  0  0  0  0
  7 13  1  0  0  0  0
  8 14  1  0  0  0  0
  9 11  2  0  0  0  0
  9 12  1  0  0  0  0
  9 17  1  0  0  0  0
 10 13  2  0  0  0  0
 10 26  1  0  0  0  0
 12 14  2  0  0  0  0
 13 27  1  0  0  0  0
 14 28  1  0  0  0  0
 15 29  1  0  0  0  0
 15 30  1  0  0  0  0
 15 31  1  0  0  0  0
 16 32  1  0  0  0  0
 16 33  1  0  0  0  0
 16 34  1  0  0  0  0
 17 18  2  0  0  0  0
 17 35  1  0  0  0  0
 18 19  1  0  0  0  0
 19 20  2  0  0  0  0
 19 21  1  0  0  0  0
 20 23  1  0  0  0  0
 21 24  2  0  0  0  0
 21 36  1  0  0  0  0
 22 37  1  0  0  0  0
 22 38  1  0  0  0  0
 22 39  1  0  0  0  0
 23 25  2  0  0  0  0
 23 40  1  0  0  0  0
 24 25  1  0  0  0  0
 24 41  1  0  0  0  0
M  END
> <PUBCHEM_COMPOUND_CID>
44260112

> <PUBCHEM_CONFORMER_RMSD>
0.6

> <PUBCHEM_CONFORMER_DIVERSEORDER>
1
3
6
5
2
4

> <PUBCHEM_MMFF94_PARTIAL_CHARGES>
31
1 -0.36
10 -0.29
11 0.08
12 0.14
13 -0.18
14 -0.15
17 -0.15
18 0.09
19 0.05
2 -0.28
20 0.08
21 -0.15
22 0.28
23 -0.15
24 -0.15
25 0.08
26 0.15
27 0.15
28 0.15
3 -0.36
35 0.15
36 0.15
4 -0.53
40 0.15
41 0.15
42 0.45
43 0.45
5 -0.53
6 0.42
7 0.03
8 0.08

> <PUBCHEM_EFFECTIVE_ROTOR_COUNT>
2.4

> <PUBCHEM_PHARMACOPHORE_FEATURES>
10
1 1 acceptor
1 2 acceptor
1 3 acceptor
1 4 donor
1 5 donor
3 6 15 16 hydrophobe
5 2 9 12 17 18 rings
6 1 6 7 8 10 13 rings
6 19 20 21 23 24 25 rings
6 7 8 9 11 12 14 rings

> <PUBCHEM_HEAVY_ATOM_COUNT>
25

> <PUBCHEM_ATOM_DEF_STEREO_COUNT>
0

> <PUBCHEM_ATOM_UDEF_STEREO_COUNT>
0

> <PUBCHEM_BOND_DEF_STEREO_COUNT>
0

> <PUBCHEM_BOND_UDEF_STEREO_COUNT>
0

> <PUBCHEM_ISOTOPIC_ATOM_COUNT>
0

> <PUBCHEM_COMPONENT_COUNT>
1

> <PUBCHEM_CACTVS_TAUTO_COUNT>
9

> <PUBCHEM_CONFORMER_ID>
02A35B1000000001

> <PUBCHEM_MMFF94_ENERGY>
78.3106

> <PUBCHEM_FEATURE_SELFOVERLAP>
50.878

> <PUBCHEM_SHAPE_FINGERPRINT>
10411042 1 18339642369374347027
10595046 47 18408043992486378080
11045515 52 18113334224103225557
11315181 36 18113903774982997723
11524674 6 16200430273444470159
11963148 33 18272080621636523286
12107183 9 17543064581309783722
12166972 35 17822295720643883868
12236239 1 18333734611171351270
12403260 363 18335986389626764316
12516196 113 17989203750804340866
12760667 363 18342737425248938099
12788726 201 18335976485078434283
13288520 33 18342175566311934635
13533116 47 18410574015933737928
13782708 43 17704070690049497470
13862211 1 18271804657412978223
14251764 18 18407758145507182250
14347332 77 18410007698261629062
14508225 48 18409438203084738165
15183329 4 18261106365982211726
15196674 1 18411700989065498393
15927050 60 17478611664666248884
16087824 20 18267021666902744365
17349148 13 18187369813314236990
17492 89 18267585706833320938
17844677 252 18335709350855157877
17857418 61 18410572868860991378
18681886 176 18342735231058518954
18927931 339 18342461430951197319
200 152 18409448094093071051
21236236 1 18342739585759841497
21267235 1 18410581698928850914
21792934 111 18342450457267701201
21792961 116 18186795869136386823
2297311 6 18201445757152436068
23402539 116 18341610413019211181
23522609 53 18126879128999114993
23559900 14 18264203776184469184
283562 15 18338797815083441635
3004659 81 18260826012382043706
335352 9 18412822478958845557
3411729 13 16915645094675774712
34797466 226 17489875964752901492
350125 39 18411700963538554096
397830 11 14907316711327756479
4015057 19 18041849531389183441
4073 2 17822860891565012490
4214541 1 18338798914516227096
465052 167 18271812370815669190
5104073 3 18341895186056104200
5283173 99 18113889430283132285
59755656 215 18272938189693367326
67856867 119 18409730703358340404
7495541 125 17917988391152616664

> <PUBCHEM_SHAPE_MULTIPOLES>
485.14
15.58
2.53
0.82
9.91
1.94
-0.1
-7.65
-1.04
-1.57
-0.06
-0.71
-0.1
-0.72

> <PUBCHEM_SHAPE_SELFOVERLAP>
1087.788

> <PUBCHEM_SHAPE_VOLUME>
260.2

> <PUBCHEM_COORDINATE_TYPE>
2
5
10

$$$$
