15559272
  -OEChem-09112003343D

 57 59  0     1  0  0  0  0  0999 V2000
   -3.2310   -0.6091   -1.3796 O   0  0  0  0  0  0  0  0  0  0  0  0
   -0.3621   -2.1243    2.2089 O   0  0  0  0  0  0  0  0  0  0  0  0
   -1.2438    0.9936   -2.2561 O   0  0  0  0  0  0  0  0  0  0  0  0
    1.7951   -0.6246    2.5141 O   0  0  0  0  0  0  0  0  0  0  0  0
    6.2827    1.3850    2.2510 O   0  0  0  0  0  0  0  0  0  0  0  0
    6.7902   -0.2301   -2.9973 O   0  0  0  0  0  0  0  0  0  0  0  0
   -4.3192   -1.4547   -0.9488 C   0  0  2  0  0  0  0  0  0  0  0  0
   -5.5056   -0.5224   -0.6767 C   0  0  0  0  0  0  0  0  0  0  0  0
   -4.0572   -2.2973    0.2775 C   0  0  0  0  0  0  0  0  0  0  0  0
   -4.6453   -2.3733   -2.1324 C   0  0  0  0  0  0  0  0  0  0  0  0
   -5.2322    0.3727    0.5258 C   0  0  0  0  0  0  0  0  0  0  0  0
   -2.0575   -0.6235   -0.6802 C   0  0  0  0  0  0  0  0  0  0  0  0
   -1.8400   -1.4145    0.4497 C   0  0  0  0  0  0  0  0  0  0  0  0
   -2.8974   -2.2830    0.9376 C   0  0  0  0  0  0  0  0  0  0  0  0
   -0.6019   -1.3609    1.1012 C   0  0  0  0  0  0  0  0  0  0  0  0
   -1.0452    0.2150   -1.1549 C   0  0  0  0  0  0  0  0  0  0  0  0
   -6.4009    1.2783    0.7936 C   0  0  0  0  0  0  0  0  0  0  0  0
    0.4077   -0.5231    0.6250 C   0  0  0  0  0  0  0  0  0  0  0  0
    0.1859    0.2644   -0.5026 C   0  0  0  0  0  0  0  0  0  0  0  0
   -6.5867    2.5361    0.3506 C   0  0  0  0  0  0  0  0  0  0  0  0
    1.7016   -0.4531    1.2905 C   0  0  0  0  0  0  0  0  0  0  0  0
   -7.7835    3.3915    0.6562 C   0  0  0  0  0  0  0  0  0  0  0  0
   -5.5480    3.2030   -0.5113 C   0  0  0  0  0  0  0  0  0  0  0  0
    2.9163   -0.1374    0.4659 C   0  0  0  0  0  0  0  0  0  0  0  0
    4.1234   -0.0361    1.0417 C   0  0  0  0  0  0  0  0  0  0  0  0
    5.3683    0.2835    0.3211 C   0  0  0  0  0  0  0  0  0  0  0  0
    6.3886    0.9762    0.9542 C   0  0  0  0  0  0  0  0  0  0  0  0
    5.4890   -0.1257   -0.9985 C   0  0  0  0  0  0  0  0  0  0  0  0
    6.6582    0.1652   -1.7013 C   0  0  0  0  0  0  0  0  0  0  0  0
    7.5578    1.2670    0.2514 C   0  0  0  0  0  0  0  0  0  0  0  0
    7.6926    0.8615   -1.0765 C   0  0  0  0  0  0  0  0  0  0  0  0
   -5.6879    0.1073   -1.5582 H   0  0  0  0  0  0  0  0  0  0  0  0
   -6.4207   -1.1055   -0.5047 H   0  0  0  0  0  0  0  0  0  0  0  0
   -4.8547   -2.9451    0.6336 H   0  0  0  0  0  0  0  0  0  0  0  0
   -4.8550   -1.7874   -3.0351 H   0  0  0  0  0  0  0  0  0  0  0  0
   -3.7900   -3.0157   -2.3745 H   0  0  0  0  0  0  0  0  0  0  0  0
   -5.5100   -3.0148   -1.9299 H   0  0  0  0  0  0  0  0  0  0  0  0
   -4.3112    0.9504    0.4034 H   0  0  0  0  0  0  0  0  0  0  0  0
   -5.0870   -0.2192    1.4373 H   0  0  0  0  0  0  0  0  0  0  0  0
   -2.7487   -2.9027    1.8133 H   0  0  0  0  0  0  0  0  0  0  0  0
   -7.1863    0.8391    1.4074 H   0  0  0  0  0  0  0  0  0  0  0  0
    0.9293    0.9599   -0.8813 H   0  0  0  0  0  0  0  0  0  0  0  0
   -8.3049    3.6637   -0.2670 H   0  0  0  0  0  0  0  0  0  0  0  0
   -8.4972    2.8697    1.3022 H   0  0  0  0  0  0  0  0  0  0  0  0
   -7.4761    4.3083    1.1693 H   0  0  0  0  0  0  0  0  0  0  0  0
   -5.0349    3.9847    0.0585 H   0  0  0  0  0  0  0  0  0  0  0  0
   -4.7928    2.5266   -0.9174 H   0  0  0  0  0  0  0  0  0  0  0  0
   -6.0299    3.6742   -1.3756 H   0  0  0  0  0  0  0  0  0  0  0  0
    0.5734   -2.0911    2.4622 H   0  0  0  0  0  0  0  0  0  0  0  0
   -2.1485    0.8392   -2.5795 H   0  0  0  0  0  0  0  0  0  0  0  0
    2.7953   -0.0154   -0.6030 H   0  0  0  0  0  0  0  0  0  0  0  0
    4.2253   -0.1635    2.1165 H   0  0  0  0  0  0  0  0  0  0  0  0
    4.7118   -0.6892   -1.5077 H   0  0  0  0  0  0  0  0  0  0  0  0
    8.3721    1.8090    0.7251 H   0  0  0  0  0  0  0  0  0  0  0  0
    8.6085    1.0944   -1.6130 H   0  0  0  0  0  0  0  0  0  0  0  0
    7.0978    1.8502    2.5061 H   0  0  0  0  0  0  0  0  0  0  0  0
    7.6601    0.0546   -3.3265 H   0  0  0  0  0  0  0  0  0  0  0  0
  1  7  1  0  0  0  0
  1 12  1  0  0  0  0
  2 15  1  0  0  0  0
  2 49  1  0  0  0  0
  3 16  1  0  0  0  0
  3 50  1  0  0  0  0
  4 21  2  0  0  0  0
  5 27  1  0  0  0  0
  5 56  1  0  0  0  0
  6 29  1  0  0  0  0
  6 57  1  0  0  0  0
  7  8  1  0  0  0  0
  7  9  1  0  0  0  0
  7 10  1  0  0  0  0
  8 11  1  0  0  0  0
  8 32  1  0  0  0  0
  8 33  1  0  0  0  0
  9 14  2  0  0  0  0
  9 34  1  0  0  0  0
 10 35  1  0  0  0  0
 10 36  1  0  0  0  0
 10 37  1  0  0  0  0
 11 17  1  0  0  0  0
 11 38  1  0  0  0  0
 11 39  1  0  0  0  0
 12 13  1  0  0  0  0
 12 16  2  0  0  0  0
 13 14  1  0  0  0  0
 13 15  2  0  0  0  0
 14 40  1  0  0  0  0
 15 18  1  0  0  0  0
 16 19  1  0  0  0  0
 17 20  2  0  0  0  0
 17 41  1  0  0  0  0
 18 19  2  0  0  0  0
 18 21  1  0  0  0  0
 19 42  1  0  0  0  0
 20 22  1  0  0  0  0
 20 23  1  0  0  0  0
 21 24  1  0  0  0  0
 22 43  1  0  0  0  0
 22 44  1  0  0  0  0
 22 45  1  0  0  0  0
 23 46  1  0  0  0  0
 23 47  1  0  0  0  0
 23 48  1  0  0  0  0
 24 25  2  0  0  0  0
 24 51  1  0  0  0  0
 25 26  1  0  0  0  0
 25 52  1  0  0  0  0
 26 27  2  0  0  0  0
 26 28  1  0  0  0  0
 27 30  1  0  0  0  0
 28 29  2  0  0  0  0
 28 53  1  0  0  0  0
 29 31  1  0  0  0  0
 30 31  2  0  0  0  0
 30 54  1  0  0  0  0
 31 55  1  0  0  0  0
M  END
> <PUBCHEM_COMPOUND_CID>
15559272

> <PUBCHEM_CONFORMER_RMSD>
1

> <PUBCHEM_CONFORMER_DIVERSEORDER>
4
63
480
84
572
305
550
189
515
157
30
345
23
36
283
557
575
178
246
466
358
331
217
602
68
271
394
493
334
226
482
126
329
594
29
39
505
344
506
118
268
275
448
525
237
319
122
338
420
518
75
574
262
67
261
517
72
382
499
183
356
137
501
46
442
524
40
560
299
74
479
337
455
55
306
71
76
112
355
170
244
50
241
202
580
498
564
245
59
8
410
215
487
64
386
586
257
6
88
590
270
359
198
81
98
325
77
20
139
203
492
531
9
134
115
184
451
411
249
140
94
41
459
159
103
35
463
413
439
21
512
160
330
318
15
546
104
7
90
446
166
483
502
353
211
3
95
199
323
263
304
598
220
87
32
464
521
124
371
131
57
321
343
11
194
13
485
174
280
188
161
508
24
190
593
26
536
496
233
288
258
5
328
128
568
340
561
34
433
38
242
229
380
17
101
1
290
2
361
228
14
460
407
412
429
291

> <PUBCHEM_MMFF94_PARTIAL_CHARGES>
42
1 -0.36
11 0.14
12 0.08
13 0.03
14 -0.18
15 0.08
16 0.08
17 -0.29
18 0.09
19 -0.15
2 -0.53
20 -0.28
21 0.47
22 0.14
23 0.14
24 -0.14
25 -0.18
26 0.03
27 0.08
28 -0.15
29 0.08
3 -0.53
30 -0.15
31 -0.15
34 0.15
4 -0.57
40 0.15
41 0.15
42 0.15
49 0.45
5 -0.53
50 0.45
51 0.15
52 0.15
53 0.15
54 0.15
55 0.15
56 0.45
57 0.45
6 -0.53
7 0.42
9 -0.29

> <PUBCHEM_EFFECTIVE_ROTOR_COUNT>
6.4

> <PUBCHEM_PHARMACOPHORE_FEATURES>
10
1 1 acceptor
1 2 donor
1 3 donor
1 4 acceptor
1 5 donor
1 6 donor
3 20 22 23 hydrophobe
6 1 7 9 12 13 14 rings
6 12 13 15 16 18 19 rings
6 26 27 28 29 30 31 rings

> <PUBCHEM_HEAVY_ATOM_COUNT>
31

> <PUBCHEM_ATOM_DEF_STEREO_COUNT>
0

> <PUBCHEM_ATOM_UDEF_STEREO_COUNT>
1

> <PUBCHEM_BOND_DEF_STEREO_COUNT>
1

> <PUBCHEM_BOND_UDEF_STEREO_COUNT>
0

> <PUBCHEM_ISOTOPIC_ATOM_COUNT>
0

> <PUBCHEM_COMPONENT_COUNT>
1

> <PUBCHEM_CACTVS_TAUTO_COUNT>
209

> <PUBCHEM_CONFORMER_ID>
00ED6A6800000004

> <PUBCHEM_MMFF94_ENERGY>
94.5834

> <PUBCHEM_FEATURE_SELFOVERLAP>
50.776

> <PUBCHEM_SHAPE_FINGERPRINT>
10 15 14634868660640262114
10454371 7 18201722838341381625
10674148 151 18409732842420417280
10906281 52 17676778625462769770
11475781 23 18273491265548032408
11578080 2 17988079989991893071
11761917 87 15648161977420062456
14294032 229 17822006463582318668
14765038 42 17894351056014024707
14856354 85 17967817184671991391
15183329 4 17604144921796711454
15188451 53 9727626202821032160
15419008 91 17274523413300969472
16120349 189 18193829355184042981
16994733 274 18410008832080585984
1768 4 15864082009092539292
19377110 9 16950554463760304264
21033648 29 18201143443659342600
21424621 283 18334297539386348403
21756936 100 18408042914702905051
21781055 127 18186802440726240976
23081809 10 18261661632423984554
23522609 53 17458923594800552788
23559900 14 17677890330729208124
23576562 1 16271061844220499809
3178227 256 16226055482714351677
4098825 35 18341049619271500950
44802255 64 17775565339183118559
44880568 143 18200874084226458168
474113 269 14620239560081205780
4938544 92 18410293619157264531
5104073 3 14563357442277038193
54039377 194 11023811904645274197
5758199 1 18040155098018277977
6697151 62 14764337224395179338
9689198 14 18412268311285337585
9962374 69 12031789163601668920

> <PUBCHEM_SHAPE_MULTIPOLES>
602.75
23.42
2.74
2.12
21.93
1.36
-0.36
17.22
-4.73
-8.22
0.19
2.49
-0.59
-0.25

> <PUBCHEM_SHAPE_SELFOVERLAP>
1300.24

> <PUBCHEM_SHAPE_VOLUME>
330.7

> <PUBCHEM_COORDINATE_TYPE>
2
5
10

$$$$
