124344
  -OEChem-09112002483D

 57 60  0     1  0  0  0  0  0999 V2000
    0.8696   -0.1139   -0.4568 O   0  0  0  0  0  0  0  0  0  0  0  0
   -3.6385    1.2106   -0.4426 O   0  0  0  0  0  0  0  0  0  0  0  0
   -2.5599   -3.3966    0.4865 O   0  0  0  0  0  0  0  0  0  0  0  0
   -0.0782   -4.0210    0.3543 O   0  0  0  0  0  0  0  0  0  0  0  0
    3.9575   -1.1444    2.1096 O   0  0  0  0  0  0  0  0  0  0  0  0
    7.0343    0.8735   -0.9195 O   0  0  0  0  0  0  0  0  0  0  0  0
   -1.4057    0.4916   -0.4433 C   0  0  0  0  0  0  0  0  0  0  0  0
   -0.4350   -0.4966   -0.2809 C   0  0  0  0  0  0  0  0  0  0  0  0
    1.8001   -0.9676    0.2271 C   0  0  1  0  0  0  0  0  0  0  0  0
   -5.0511    0.9678   -0.2701 C   0  0  0  0  0  0  0  0  0  0  0  0
   -2.7578    0.1793   -0.2750 C   0  0  0  0  0  0  0  0  0  0  0  0
   -0.8208   -1.8049    0.0177 C   0  0  0  0  0  0  0  0  0  0  0  0
   -3.1450   -1.1243    0.0447 C   0  0  0  0  0  0  0  0  0  0  0  0
    1.6231   -2.4234   -0.1994 C   0  0  0  0  0  0  0  0  0  0  0  0
   -2.1718   -2.1216    0.1878 C   0  0  0  0  0  0  0  0  0  0  0  0
    0.2129   -2.8572    0.1057 C   0  0  0  0  0  0  0  0  0  0  0  0
   -0.9977    1.8910   -0.7862 C   0  0  0  0  0  0  0  0  0  0  0  0
   -5.4419   -0.4513    0.0686 C   0  0  0  0  0  0  0  0  0  0  0  0
   -4.5537   -1.4362    0.2167 C   0  0  0  0  0  0  0  0  0  0  0  0
    3.2033   -0.4800   -0.0665 C   0  0  0  0  0  0  0  0  0  0  0  0
   -5.5154    1.9019    0.8537 C   0  0  0  0  0  0  0  0  0  0  0  0
   -5.7208    1.3743   -1.5883 C   0  0  0  0  0  0  0  0  0  0  0  0
   -0.7404    2.7381    0.4331 C   0  0  0  0  0  0  0  0  0  0  0  0
    4.2131   -0.5935    0.8900 C   0  0  0  0  0  0  0  0  0  0  0  0
    3.4827    0.0883   -1.3099 C   0  0  0  0  0  0  0  0  0  0  0  0
    0.3937    3.3800    0.7731 C   0  0  0  0  0  0  0  0  0  0  0  0
    5.5004   -0.1389    0.6034 C   0  0  0  0  0  0  0  0  0  0  0  0
    4.7697    0.5427   -1.5964 C   0  0  0  0  0  0  0  0  0  0  0  0
    5.7787    0.4292   -0.6398 C   0  0  0  0  0  0  0  0  0  0  0  0
    0.5826    4.2117    2.0099 C   0  0  0  0  0  0  0  0  0  0  0  0
    1.6121    3.2914   -0.1072 C   0  0  0  0  0  0  0  0  0  0  0  0
    1.5852   -0.8402    1.2969 H   0  0  0  0  0  0  0  0  0  0  0  0
    2.3175   -3.0744    0.3426 H   0  0  0  0  0  0  0  0  0  0  0  0
    1.7840   -2.5542   -1.2761 H   0  0  0  0  0  0  0  0  0  0  0  0
   -0.1698    1.8596   -1.4970 H   0  0  0  0  0  0  0  0  0  0  0  0
   -1.7878    2.3854   -1.3670 H   0  0  0  0  0  0  0  0  0  0  0  0
   -6.4990   -0.6758    0.1895 H   0  0  0  0  0  0  0  0  0  0  0  0
   -4.9005   -2.4364    0.4402 H   0  0  0  0  0  0  0  0  0  0  0  0
   -5.0133    1.6563    1.7974 H   0  0  0  0  0  0  0  0  0  0  0  0
   -5.2545    2.9428    0.6288 H   0  0  0  0  0  0  0  0  0  0  0  0
   -6.5975    1.8452    1.0149 H   0  0  0  0  0  0  0  0  0  0  0  0
   -5.4630    2.4060   -1.8552 H   0  0  0  0  0  0  0  0  0  0  0  0
   -5.3684    0.7457   -2.4151 H   0  0  0  0  0  0  0  0  0  0  0  0
   -6.8122    1.2947   -1.5369 H   0  0  0  0  0  0  0  0  0  0  0  0
   -1.5921    2.8460    1.1045 H   0  0  0  0  0  0  0  0  0  0  0  0
    2.7191    0.1776   -2.0779 H   0  0  0  0  0  0  0  0  0  0  0  0
   -3.2941   -3.3725    1.1214 H   0  0  0  0  0  0  0  0  0  0  0  0
    6.2869   -0.2268    1.3488 H   0  0  0  0  0  0  0  0  0  0  0  0
    4.9745    0.9812   -2.5694 H   0  0  0  0  0  0  0  0  0  0  0  0
   -0.3257    4.2365    2.6208 H   0  0  0  0  0  0  0  0  0  0  0  0
    1.3891    3.8016    2.6262 H   0  0  0  0  0  0  0  0  0  0  0  0
    0.8345    5.2429    1.7426 H   0  0  0  0  0  0  0  0  0  0  0  0
    1.4899    2.7608   -1.0494 H   0  0  0  0  0  0  0  0  0  0  0  0
    1.9505    4.3017   -0.3648 H   0  0  0  0  0  0  0  0  0  0  0  0
    2.4232    2.7975    0.4394 H   0  0  0  0  0  0  0  0  0  0  0  0
    3.1806   -1.7234    2.0669 H   0  0  0  0  0  0  0  0  0  0  0  0
    7.0464    1.2362   -1.8220 H   0  0  0  0  0  0  0  0  0  0  0  0
  1  8  1  0  0  0  0
  1  9  1  0  0  0  0
  2 10  1  0  0  0  0
  2 11  1  0  0  0  0
  3 15  1  0  0  0  0
  3 47  1  0  0  0  0
  4 16  2  0  0  0  0
  5 24  1  0  0  0  0
  5 56  1  0  0  0  0
  6 29  1  0  0  0  0
  6 57  1  0  0  0  0
  7  8  1  0  0  0  0
  7 11  2  0  0  0  0
  7 17  1  0  0  0  0
  8 12  2  0  0  0  0
  9 14  1  0  0  0  0
  9 20  1  0  0  0  0
  9 32  1  0  0  0  0
 10 18  1  0  0  0  0
 10 21  1  0  0  0  0
 10 22  1  0  0  0  0
 11 13  1  0  0  0  0
 12 15  1  0  0  0  0
 12 16  1  0  0  0  0
 13 15  2  0  0  0  0
 13 19  1  0  0  0  0
 14 16  1  0  0  0  0
 14 33  1  0  0  0  0
 14 34  1  0  0  0  0
 17 23  1  0  0  0  0
 17 35  1  0  0  0  0
 17 36  1  0  0  0  0
 18 19  2  0  0  0  0
 18 37  1  0  0  0  0
 19 38  1  0  0  0  0
 20 24  2  0  0  0  0
 20 25  1  0  0  0  0
 21 39  1  0  0  0  0
 21 40  1  0  0  0  0
 21 41  1  0  0  0  0
 22 42  1  0  0  0  0
 22 43  1  0  0  0  0
 22 44  1  0  0  0  0
 23 26  2  0  0  0  0
 23 45  1  0  0  0  0
 24 27  1  0  0  0  0
 25 28  2  0  0  0  0
 25 46  1  0  0  0  0
 26 30  1  0  0  0  0
 26 31  1  0  0  0  0
 27 29  2  0  0  0  0
 27 48  1  0  0  0  0
 28 29  1  0  0  0  0
 28 49  1  0  0  0  0
 30 50  1  0  0  0  0
 30 51  1  0  0  0  0
 30 52  1  0  0  0  0
 31 53  1  0  0  0  0
 31 54  1  0  0  0  0
 31 55  1  0  0  0  0
M  END
> <PUBCHEM_COMPOUND_CID>
124344

> <PUBCHEM_CONFORMER_RMSD>
0.8

> <PUBCHEM_CONFORMER_DIVERSEORDER>
4
13
17
33
23
26
31
16
7
18
34
20
19
15
5
22
2
27
8
25
11
24
14
10
32
12
3
29
28
1
6
9
21
30

> <PUBCHEM_MMFF94_PARTIAL_CHARGES>
38
1 -0.36
10 0.42
11 0.08
12 0.09
13 0.03
14 0.06
15 0.08
16 0.42
17 0.28
18 -0.29
19 -0.18
2 -0.36
20 -0.14
23 -0.29
24 0.08
25 -0.15
26 -0.28
27 -0.15
28 -0.15
29 0.08
3 -0.53
30 0.14
31 0.14
37 0.15
38 0.15
4 -0.57
45 0.15
46 0.15
47 0.45
48 0.15
49 0.15
5 -0.53
56 0.45
57 0.45
6 -0.53
7 -0.14
8 0.08
9 0.42

> <PUBCHEM_EFFECTIVE_ROTOR_COUNT>
4

> <PUBCHEM_PHARMACOPHORE_FEATURES>
12
1 1 acceptor
1 2 acceptor
1 3 donor
1 4 acceptor
1 5 donor
1 6 donor
3 10 21 22 hydrophobe
3 26 30 31 hydrophobe
6 1 8 9 12 14 16 rings
6 2 10 11 13 18 19 rings
6 20 24 25 27 28 29 rings
6 7 8 11 12 13 15 rings

> <PUBCHEM_HEAVY_ATOM_COUNT>
31

> <PUBCHEM_ATOM_DEF_STEREO_COUNT>
1

> <PUBCHEM_ATOM_UDEF_STEREO_COUNT>
0

> <PUBCHEM_BOND_DEF_STEREO_COUNT>
0

> <PUBCHEM_BOND_UDEF_STEREO_COUNT>
0

> <PUBCHEM_ISOTOPIC_ATOM_COUNT>
0

> <PUBCHEM_COMPONENT_COUNT>
1

> <PUBCHEM_CACTVS_TAUTO_COUNT>
81

> <PUBCHEM_CONFORMER_ID>
0001E5B800000004

> <PUBCHEM_MMFF94_ENERGY>
95.7599

> <PUBCHEM_FEATURE_SELFOVERLAP>
60.956

> <PUBCHEM_SHAPE_FINGERPRINT>
10 15 17895202074003655945
10006869 2 17983008952006674393
10290309 65 18262513680768183366
10411042 1 17687472673350679867
10670039 82 18267878198759212284
10675989 125 17325196339724413237
10906281 52 18339092496878949773
1100329 8 18411702127168684225
11112241 14 16843016879229600696
11607047 403 12418185736733969296
11646440 116 18272380779603815689
12156800 1 11503612385894480896
12166972 35 17967817124684751012
12236239 1 17821445768502168006
12422481 6 17095802118726789591
12788726 201 18341052921948507512
13140716 1 18338514256931684017
13402501 40 18341611546817003416
13911987 19 18408880707496631125
14020679 6 17895482517745143715
140371 6 18201174199128962220
14394314 77 18411423894919370520
14466204 15 18410007715599766969
14765038 42 18127990632771147761
14787075 74 18260547814317829699
14790565 3 18409174315587485325
15081414 286 18341905034890951075
15297060 5 18342466924098259458
15324884 4 17701834400032852078
15927050 60 17766275758202260092
1601671 61 18411138017573878543
16067689 134 18055087462230600345
19319366 153 17749381555961946306
19591789 44 18265335186934960717
20511986 3 17749659766599649692
20600515 1 18268450021387593373
20642791 105 17901649489397782128
20642791 178 18187943810272301373
20642791 239 18189354513945659804
20642791 35 18339923839703097888
20715895 44 17536297155960650013
21033648 29 17346590889710621882
21792964 463 16878806902306177108
22311459 1 18266179611998156651
23558518 356 17549261428485232397
23559900 14 18343018938553391336
3178227 256 18337124418884819449
335352 9 18410011074712630999
34934 24 18339356371380712751
350125 39 18335989748828720767
3680242 22 18334577893413375016
469060 322 18340779130536693896
484989 97 18264766752804707367
5171179 24 17911236435900701243
5486654 2 18410294700687221998
59755656 215 18339646625323519110
6004065 56 18200295711334977581
6823239 73 18341043129349239432
7226269 152 18411141324714754789

> <PUBCHEM_SHAPE_MULTIPOLES>
602.75
12.97
4.27
1.26
4.42
1.31
0.14
2.29
-2.62
-1.17
1.86
0.83
0.68
-0.01

> <PUBCHEM_SHAPE_SELFOVERLAP>
1322.728

> <PUBCHEM_SHAPE_VOLUME>
326.9

> <PUBCHEM_COORDINATE_TYPE>
2
5
10

$$$$
