14237660
  -OEChem-09112002443D

 41 44  0     0  0  0  0  0  0999 V2000
   -4.8174    0.0166   -0.8897 O   0  0  0  0  0  0  0  0  0  0  0  0
    2.6362   -2.0379    0.0529 O   0  0  0  0  0  0  0  0  0  0  0  0
    1.2561    1.7770   -0.3838 O   0  0  0  0  0  0  0  0  0  0  0  0
    3.6761    2.6924   -0.1229 O   0  0  0  0  0  0  0  0  0  0  0  0
    7.1145   -0.5233    0.4920 O   0  0  0  0  0  0  0  0  0  0  0  0
   -5.7090    0.1771    0.2347 C   0  0  0  0  0  0  0  0  0  0  0  0
   -2.8997   -0.0923    0.6074 C   0  0  0  0  0  0  0  0  0  0  0  0
   -3.4762   -0.1147   -0.6641 C   0  0  0  0  0  0  0  0  0  0  0  0
   -5.0577    0.2041    1.5974 C   0  0  0  0  0  0  0  0  0  0  0  0
   -6.6977   -0.9932    0.1701 C   0  0  0  0  0  0  0  0  0  0  0  0
   -6.4595    1.4947    0.0062 C   0  0  0  0  0  0  0  0  0  0  0  0
   -3.7416    0.0783    1.7790 C   0  0  0  0  0  0  0  0  0  0  0  0
   -0.7125   -0.3963   -0.3931 C   0  0  0  0  0  0  0  0  0  0  0  0
   -1.5129   -0.2340    0.7387 C   0  0  0  0  0  0  0  0  0  0  0  0
   -2.6726   -0.2769   -1.7960 C   0  0  0  0  0  0  0  0  0  0  0  0
    0.7448   -0.5447   -0.2486 C   0  0  0  0  0  0  0  0  0  0  0  0
   -1.2922   -0.4177   -1.6597 C   0  0  0  0  0  0  0  0  0  0  0  0
    1.6589    0.6307   -0.2341 C   0  0  0  0  0  0  0  0  0  0  0  0
    3.0925    0.3440   -0.0421 C   0  0  0  0  0  0  0  0  0  0  0  0
    3.5082   -0.9803    0.0907 C   0  0  0  0  0  0  0  0  0  0  0  0
    1.3007   -1.7573   -0.1053 C   0  0  0  0  0  0  0  0  0  0  0  0
    4.0268    1.3822    0.0029 C   0  0  0  0  0  0  0  0  0  0  0  0
    4.8604   -1.2743    0.2696 C   0  0  0  0  0  0  0  0  0  0  0  0
    5.3788    1.0856    0.1823 C   0  0  0  0  0  0  0  0  0  0  0  0
    5.7948   -0.2397    0.3154 C   0  0  0  0  0  0  0  0  0  0  0  0
   -5.6965    0.3309    2.4680 H   0  0  0  0  0  0  0  0  0  0  0  0
   -7.4678   -0.9242    0.9464 H   0  0  0  0  0  0  0  0  0  0  0  0
   -7.1953   -1.0310   -0.8062 H   0  0  0  0  0  0  0  0  0  0  0  0
   -6.1766   -1.9512    0.2870 H   0  0  0  0  0  0  0  0  0  0  0  0
   -7.2189    1.6741    0.7751 H   0  0  0  0  0  0  0  0  0  0  0  0
   -5.7650    2.3435    0.0039 H   0  0  0  0  0  0  0  0  0  0  0  0
   -6.9529    1.4986   -0.9729 H   0  0  0  0  0  0  0  0  0  0  0  0
   -3.3002    0.1002    2.7681 H   0  0  0  0  0  0  0  0  0  0  0  0
   -1.0566   -0.2165    1.7271 H   0  0  0  0  0  0  0  0  0  0  0  0
   -3.1166   -0.2943   -2.7879 H   0  0  0  0  0  0  0  0  0  0  0  0
   -0.6820   -0.5422   -2.5510 H   0  0  0  0  0  0  0  0  0  0  0  0
    0.7351   -2.6809   -0.0961 H   0  0  0  0  0  0  0  0  0  0  0  0
    5.1799   -2.3084    0.3728 H   0  0  0  0  0  0  0  0  0  0  0  0
    6.1185    1.8819    0.2201 H   0  0  0  0  0  0  0  0  0  0  0  0
    4.4719    3.2483   -0.0638 H   0  0  0  0  0  0  0  0  0  0  0  0
    7.2229   -1.4871    0.5657 H   0  0  0  0  0  0  0  0  0  0  0  0
  1  6  1  0  0  0  0
  1  8  1  0  0  0  0
  2 20  1  0  0  0  0
  2 21  1  0  0  0  0
  3 18  2  0  0  0  0
  4 22  1  0  0  0  0
  4 40  1  0  0  0  0
  5 25  1  0  0  0  0
  5 41  1  0  0  0  0
  6  9  1  0  0  0  0
  6 10  1  0  0  0  0
  6 11  1  0  0  0  0
  7  8  2  0  0  0  0
  7 12  1  0  0  0  0
  7 14  1  0  0  0  0
  8 15  1  0  0  0  0
  9 12  2  0  0  0  0
  9 26  1  0  0  0  0
 10 27  1  0  0  0  0
 10 28  1  0  0  0  0
 10 29  1  0  0  0  0
 11 30  1  0  0  0  0
 11 31  1  0  0  0  0
 11 32  1  0  0  0  0
 12 33  1  0  0  0  0
 13 14  2  0  0  0  0
 13 16  1  0  0  0  0
 13 17  1  0  0  0  0
 14 34  1  0  0  0  0
 15 17  2  0  0  0  0
 15 35  1  0  0  0  0
 16 18  1  0  0  0  0
 16 21  2  0  0  0  0
 17 36  1  0  0  0  0
 18 19  1  0  0  0  0
 19 20  1  0  0  0  0
 19 22  2  0  0  0  0
 20 23  2  0  0  0  0
 21 37  1  0  0  0  0
 22 24  1  0  0  0  0
 23 25  1  0  0  0  0
 23 38  1  0  0  0  0
 24 25  2  0  0  0  0
 24 39  1  0  0  0  0
M  END
> <PUBCHEM_COMPOUND_CID>
14237660

> <PUBCHEM_CONFORMER_RMSD>
0.6

> <PUBCHEM_CONFORMER_DIVERSEORDER>
1
3
6
4
5
2

> <PUBCHEM_MMFF94_PARTIAL_CHARGES>
33
1 -0.36
12 -0.18
13 0.03
14 -0.15
15 -0.15
16 -0.01
17 -0.15
18 0.47
19 0.09
2 -0.16
20 0.08
21 -0.07
22 0.08
23 -0.15
24 -0.15
25 0.08
26 0.15
3 -0.57
33 0.15
34 0.15
35 0.15
36 0.15
37 0.15
38 0.15
39 0.15
4 -0.53
40 0.45
41 0.45
5 -0.53
6 0.42
7 0.03
8 0.08
9 -0.29

> <PUBCHEM_EFFECTIVE_ROTOR_COUNT>
1.4

> <PUBCHEM_PHARMACOPHORE_FEATURES>
10
1 1 acceptor
1 2 acceptor
1 3 acceptor
1 4 donor
1 5 donor
3 6 10 11 hydrophobe
6 1 6 7 8 9 12 rings
6 19 20 22 23 24 25 rings
6 2 16 18 19 20 21 rings
6 7 8 13 14 15 17 rings

> <PUBCHEM_HEAVY_ATOM_COUNT>
25

> <PUBCHEM_ATOM_DEF_STEREO_COUNT>
0

> <PUBCHEM_ATOM_UDEF_STEREO_COUNT>
0

> <PUBCHEM_BOND_DEF_STEREO_COUNT>
0

> <PUBCHEM_BOND_UDEF_STEREO_COUNT>
0

> <PUBCHEM_ISOTOPIC_ATOM_COUNT>
0

> <PUBCHEM_COMPONENT_COUNT>
1

> <PUBCHEM_CACTVS_TAUTO_COUNT>
12

> <PUBCHEM_CONFORMER_ID>
00D93FDC00000001

> <PUBCHEM_MMFF94_ENERGY>
82.4672

> <PUBCHEM_FEATURE_SELFOVERLAP>
50.804

> <PUBCHEM_SHAPE_FINGERPRINT>
10 15 17530961436853623984
10411042 1 18050004390806893042
10670039 82 16343434916073924465
10688039 33 17968094196903602644
11045977 3 17968101957597691954
11089746 13 17418370307301285032
11315181 36 17132112467804930611
11524674 6 18040435503506583899
11796584 16 15339120161141643806
11963148 33 14996283656007627945
12107183 9 17552087190643601067
12166972 35 18411982507219248657
12236239 1 17917990581200802463
12403259 415 17603576430913478692
12516196 113 18408604759900178257
12596602 18 18272371984080512123
12616971 3 18272362092385454380
12916748 109 16128665145257011123
13167372 99 18343303626144650985
13288520 33 14851606583594377751
13533116 47 17313657149367797330
13583140 156 18341900753156626075
13631057 29 18058442279129707559
13782708 43 17458341931395197275
14251764 18 18272930553109106524
14341114 176 17967255307774442421
14386348 63 17530965773910535507
14849402 71 18268994357069090200
15183329 4 16558757810080306836
15348495 7 17822017561413424593
15475509 35 16298927794469662440
17844677 252 18333454231327373077
19489759 90 16588023511751722425
20511986 3 17846203467002247297
21033648 144 18269541905369482396
21033648 29 17895458302303290556
21033650 10 16055504749772933424
21267235 1 18409449147193638270
21623969 137 18260833691435773138
21792961 116 17749384816422267862
22122407 14 18271257066447679121
22224240 67 18260264170583328826
2297311 6 16081087060719481071
23035841 295 14417852540117486265
23402539 116 15770050636096860477
23522609 53 12758008801997073975
23557571 272 16588020173808039351
23559900 14 15502667043357299087
23569917 315 17918280860903662911
23569943 247 17841727209971263686
2838139 119 18341325597054660989
300161 21 17704348866264146383
3004659 81 16128386926493401846
314173 85 16298389067714707583
3178227 256 18186800275893859794
335352 9 18410858776956140702
3411729 13 15503520312094501764
345986 75 18199456676573023930
3472631 163 16702016526285903320
34797466 226 14692574363913633840
4073 2 17967819400294861394
4325135 7 18342455967932274679
4340502 62 18408047316411685955
474 4 18342740749463772578
5104073 3 18265605662685270594
542803 24 17703791422585405543
59755656 215 15864065451355433162
59755656 520 18410569617576614407
602551 16 15936415571515862552
7495541 125 16588031229422916334

> <PUBCHEM_SHAPE_MULTIPOLES>
485.14
17.07
1.62
1.21
2.41
0.46
0.06
1.73
-3.48
-1.75
0.07
1.63
-0.06
-0.45

> <PUBCHEM_SHAPE_SELFOVERLAP>
1088.908

> <PUBCHEM_SHAPE_VOLUME>
255.4

> <PUBCHEM_COORDINATE_TYPE>
2
5
10

$$$$
