161218
  -OEChem-09112016173D

 37 40  0     0  0  0  0  0  0999 V2000
    0.0876    3.3642   -0.0665 O   0  0  0  0  0  0  0  0  0  0  0  0
    2.4671    3.6304   -0.1554 O   0  0  0  0  0  0  0  0  0  0  0  0
   -3.5939   -2.3212    0.2304 O   0  0  0  0  0  0  0  0  0  0  0  0
   -4.6303    2.2950    0.1216 O   0  0  0  0  0  0  0  0  0  0  0  0
    3.8205   -1.3914    1.2172 O   0  0  0  0  0  0  0  0  0  0  0  0
    3.8838   -1.6048   -1.0449 O   0  0  0  0  0  0  0  0  0  0  0  0
    1.6270   -3.2247   -1.0147 O   0  5  0  0  0  0  0  0  0  0  0  0
    1.7011   -3.1573    1.1783 O   0  0  0  0  0  0  0  0  0  0  0  0
    1.3241   -2.6965    0.0781 N   0  3  0  0  0  0  0  0  0  0  0  0
    0.0987    0.8854    0.0086 C   0  0  0  0  0  0  0  0  0  0  0  0
    1.0049   -0.2137    0.0123 C   0  0  0  0  0  0  0  0  0  0  0  0
   -1.3269    0.6211    0.0640 C   0  0  0  0  0  0  0  0  0  0  0  0
    0.7196    2.1519   -0.0512 C   0  0  0  0  0  0  0  0  0  0  0  0
   -1.7747   -0.7257    0.1207 C   0  0  0  0  0  0  0  0  0  0  0  0
    0.5154   -1.5196    0.0693 C   0  0  0  0  0  0  0  0  0  0  0  0
    2.4044   -0.0151   -0.0409 C   0  0  0  0  0  0  0  0  0  0  0  0
    2.0906    2.3230   -0.1026 C   0  0  0  0  0  0  0  0  0  0  0  0
   -0.8504   -1.7718    0.1227 C   0  0  0  0  0  0  0  0  0  0  0  0
    2.9584    1.2594   -0.0992 C   0  0  0  0  0  0  0  0  0  0  0  0
   -2.3404    1.6142    0.0662 C   0  0  0  0  0  0  0  0  0  0  0  0
   -3.1458   -1.0301    0.1754 C   0  0  0  0  0  0  0  0  0  0  0  0
    1.1896    4.2844   -0.1329 C   0  0  0  0  0  0  0  0  0  0  0  0
   -3.7020    1.2994    0.1207 C   0  0  0  0  0  0  0  0  0  0  0  0
   -4.1052   -0.0241    0.1754 C   0  0  0  0  0  0  0  0  0  0  0  0
    3.4231   -1.0651   -0.0397 C   0  0  0  0  0  0  0  0  0  0  0  0
   -3.8463   -2.9673   -1.0130 C   0  0  0  0  0  0  0  0  0  0  0  0
   -1.1878   -2.8066    0.1750 H   0  0  0  0  0  0  0  0  0  0  0  0
    4.0307    1.4222   -0.1401 H   0  0  0  0  0  0  0  0  0  0  0  0
   -2.0833    2.6674    0.0249 H   0  0  0  0  0  0  0  0  0  0  0  0
    1.1474    4.9472    0.7389 H   0  0  0  0  0  0  0  0  0  0  0  0
    1.0872    4.8912   -1.0398 H   0  0  0  0  0  0  0  0  0  0  0  0
   -5.1624   -0.2720    0.2193 H   0  0  0  0  0  0  0  0  0  0  0  0
   -4.1759    3.1538    0.0799 H   0  0  0  0  0  0  0  0  0  0  0  0
   -4.0908   -4.0139   -0.8118 H   0  0  0  0  0  0  0  0  0  0  0  0
   -2.9678   -2.9340   -1.6650 H   0  0  0  0  0  0  0  0  0  0  0  0
   -4.6998   -2.5011   -1.5156 H   0  0  0  0  0  0  0  0  0  0  0  0
    4.5027   -2.0963    1.2136 H   0  0  0  0  0  0  0  0  0  0  0  0
  1 13  1  0  0  0  0
  1 22  1  0  0  0  0
  2 17  1  0  0  0  0
  2 22  1  0  0  0  0
  3 21  1  0  0  0  0
  3 26  1  0  0  0  0
  4 23  1  0  0  0  0
  4 33  1  0  0  0  0
  5 25  1  0  0  0  0
  5 37  1  0  0  0  0
  6 25  2  0  0  0  0
  7  9  1  0  0  0  0
  8  9  2  0  0  0  0
  9 15  1  0  0  0  0
 10 11  1  0  0  0  0
 10 12  2  0  0  0  0
 10 13  1  0  0  0  0
 11 15  2  0  0  0  0
 11 16  1  0  0  0  0
 12 14  1  0  0  0  0
 12 20  1  0  0  0  0
 13 17  2  0  0  0  0
 14 18  2  0  0  0  0
 14 21  1  0  0  0  0
 15 18  1  0  0  0  0
 16 19  2  0  0  0  0
 16 25  1  0  0  0  0
 17 19  1  0  0  0  0
 18 27  1  0  0  0  0
 19 28  1  0  0  0  0
 20 23  2  0  0  0  0
 20 29  1  0  0  0  0
 21 24  2  0  0  0  0
 22 30  1  0  0  0  0
 22 31  1  0  0  0  0
 23 24  1  0  0  0  0
 24 32  1  0  0  0  0
 26 34  1  0  0  0  0
 26 35  1  0  0  0  0
 26 36  1  0  0  0  0
M  CHG  2   7  -1   9   1
M  END
> <PUBCHEM_COMPOUND_CID>
161218

> <PUBCHEM_CONFORMER_RMSD>
0.8

> <PUBCHEM_CONFORMER_DIVERSEORDER>
1

> <PUBCHEM_MMFF94_PARTIAL_CHARGES>
28
1 -0.36
13 0.08
15 0.13
16 0.09
17 0.08
18 -0.15
19 -0.15
2 -0.36
20 -0.15
21 0.08
22 0.56
23 0.08
24 -0.15
25 0.63
26 0.28
27 0.15
28 0.15
29 0.15
3 -0.36
32 0.15
33 0.45
37 0.5
4 -0.53
5 -0.65
6 -0.57
7 -0.52
8 -0.52
9 0.91

> <PUBCHEM_EFFECTIVE_ROTOR_COUNT>
3.6

> <PUBCHEM_PHARMACOPHORE_FEATURES>
14
1 1 acceptor
1 2 acceptor
1 3 acceptor
1 4 donor
1 5 acceptor
1 6 acceptor
1 7 acceptor
1 7 anion
1 8 acceptor
3 5 6 25 anion
5 1 2 13 17 22 rings
6 10 11 12 14 15 18 rings
6 10 11 13 16 17 19 rings
6 12 14 20 21 23 24 rings

> <PUBCHEM_HEAVY_ATOM_COUNT>
26

> <PUBCHEM_ATOM_DEF_STEREO_COUNT>
0

> <PUBCHEM_ATOM_UDEF_STEREO_COUNT>
0

> <PUBCHEM_BOND_DEF_STEREO_COUNT>
0

> <PUBCHEM_BOND_UDEF_STEREO_COUNT>
0

> <PUBCHEM_ISOTOPIC_ATOM_COUNT>
0

> <PUBCHEM_COMPONENT_COUNT>
1

> <PUBCHEM_CACTVS_TAUTO_COUNT>
4

> <PUBCHEM_CONFORMER_ID>
000275C200000001

> <PUBCHEM_MMFF94_ENERGY>
116.1581

> <PUBCHEM_FEATURE_SELFOVERLAP>
71.403

> <PUBCHEM_SHAPE_FINGERPRINT>
10319926 262 17040326045322324186
10411042 1 17905609895963322067
10616163 171 18339645663012999775
10967382 1 18265897956019934961
1100329 8 18410013200083340201
11135609 187 17331110011537498023
11578080 2 17417231261000456571
116883 192 17907581324437703454
12403260 363 18194109935577739379
12553582 1 18265893553620187404
12788726 201 17973734567147124282
13004483 165 17830160316795227211
13140716 1 18410566280370746432
138480 1 18410294692329675016
14178342 30 18340752819392536185
14223421 5 18192437583029789787
14790565 3 18192158298803872692
15196674 1 18410576192780485056
15442244 35 18410575102033190057
1601671 61 18339928091293011114
16087824 20 17833555592029234949
16945 1 18265896843908137932
17492 89 18340488992547707983
19591789 44 18266181823282970964
19930381 70 18122061163777300681
20691752 17 17603578651369333377
21197605 99 17256258557848003435
21267235 1 18338808835922472307
221490 88 18337117881179729483
22393880 68 18340496663147912668
2334 1 18338237188522892632
23366157 5 18042404801708886092
23558518 356 18189339129414223859
23559900 14 18413384354163036513
266924 87 18194675102457115149
2748010 2 18410290341617397020
314173 41 18337962190029589398
335352 9 18338237046794259997
34934 24 18266173942081338275
350125 39 18266181827736330185
352729 6 17327744401211242696
4409770 3 17682661935925764228
5104073 3 18410577309973259801
5939293 188 18410854352448664040
6443956 14 18337115566329676012
7364860 26 18411141380422709377
7832392 63 18411698742913582107
9709674 26 18265338489401080803
9981440 41 17688303912292668744

> <PUBCHEM_SHAPE_MULTIPOLES>
483.13
7.23
4.85
0.79
4.89
1.68
0
-0.97
0.26
-1.98
0.33
-0.19
-0.48
-0.64

> <PUBCHEM_SHAPE_SELFOVERLAP>
1102.765

> <PUBCHEM_SHAPE_VOLUME>
250.1

> <PUBCHEM_COORDINATE_TYPE>
2
5
10

$$$$
