148745
  -OEChem-09112016193D

 29 33  0     0  0  0  0  0  0999 V2000
   -0.2678    2.8926    0.0002 O   0  0  0  0  0  0  0  0  0  0  0  0
   -2.6696    2.7387    0.0001 O   0  0  0  0  0  0  0  0  0  0  0  0
   -3.4449   -2.7090    0.0017 O   0  0  0  0  0  0  0  0  0  0  0  0
   -1.0911   -2.9217   -0.0004 N   0  0  0  0  0  0  0  0  0  0  0  0
   -0.5919   -0.7287   -0.0005 C   0  0  0  0  0  0  0  0  0  0  0  0
    0.1502    0.4529   -0.0004 C   0  0  0  0  0  0  0  0  0  0  0  0
   -0.0573   -1.9831   -0.0006 C   0  0  0  0  0  0  0  0  0  0  0  0
   -1.9704   -0.8196   -0.0005 C   0  0  0  0  0  0  0  0  0  0  0  0
    1.5846    0.2916   -0.0002 C   0  0  0  0  0  0  0  0  0  0  0  0
   -0.6840    1.5931   -0.0002 C   0  0  0  0  0  0  0  0  0  0  0  0
    2.1396   -1.0353   -0.0001 C   0  0  0  0  0  0  0  0  0  0  0  0
   -2.0784    1.5095   -0.0001 C   0  0  0  0  0  0  0  0  0  0  0  0
    1.3052   -2.1726   -0.0004 C   0  0  0  0  0  0  0  0  0  0  0  0
   -2.7665    0.3053   -0.0001 C   0  0  0  0  0  0  0  0  0  0  0  0
   -2.3167   -2.2570    0.0000 C   0  0  0  0  0  0  0  0  0  0  0  0
    2.4868    1.3763   -0.0002 C   0  0  0  0  0  0  0  0  0  0  0  0
   -1.5194    3.6034    0.0002 C   0  0  0  0  0  0  0  0  0  0  0  0
    3.5320   -1.2061    0.0003 C   0  0  0  0  0  0  0  0  0  0  0  0
    3.8692    1.1784    0.0003 C   0  0  0  0  0  0  0  0  0  0  0  0
    4.3903   -0.1087    0.0008 C   0  0  0  0  0  0  0  0  0  0  0  0
    1.7191   -3.1770   -0.0002 H   0  0  0  0  0  0  0  0  0  0  0  0
   -3.8471    0.2562    0.0001 H   0  0  0  0  0  0  0  0  0  0  0  0
   -0.9533   -3.9250    0.0002 H   0  0  0  0  0  0  0  0  0  0  0  0
    2.1309    2.4024   -0.0005 H   0  0  0  0  0  0  0  0  0  0  0  0
   -1.5601    4.2415    0.8903 H   0  0  0  0  0  0  0  0  0  0  0  0
   -1.5601    4.2415   -0.8900 H   0  0  0  0  0  0  0  0  0  0  0  0
    3.9671   -2.2039    0.0005 H   0  0  0  0  0  0  0  0  0  0  0  0
    4.5379    2.0345    0.0004 H   0  0  0  0  0  0  0  0  0  0  0  0
    5.4657   -0.2605    0.0012 H   0  0  0  0  0  0  0  0  0  0  0  0
  1 10  1  0  0  0  0
  1 17  1  0  0  0  0
  2 12  1  0  0  0  0
  2 17  1  0  0  0  0
  3 15  2  0  0  0  0
  4  7  1  0  0  0  0
  4 15  1  0  0  0  0
  4 23  1  0  0  0  0
  5  6  2  0  0  0  0
  5  7  1  0  0  0  0
  5  8  1  0  0  0  0
  6  9  1  0  0  0  0
  6 10  1  0  0  0  0
  7 13  2  0  0  0  0
  8 14  2  0  0  0  0
  8 15  1  0  0  0  0
  9 11  1  0  0  0  0
  9 16  2  0  0  0  0
 10 12  2  0  0  0  0
 11 13  1  0  0  0  0
 11 18  2  0  0  0  0
 12 14  1  0  0  0  0
 13 21  1  0  0  0  0
 14 22  1  0  0  0  0
 16 19  1  0  0  0  0
 16 24  1  0  0  0  0
 17 25  1  0  0  0  0
 17 26  1  0  0  0  0
 18 20  1  0  0  0  0
 18 27  1  0  0  0  0
 19 20  2  0  0  0  0
 19 28  1  0  0  0  0
 20 29  1  0  0  0  0
M  END
> <PUBCHEM_COMPOUND_CID>
148745

> <PUBCHEM_CONFORMER_RMSD>
0.6

> <PUBCHEM_CONFORMER_DIVERSEORDER>
1

> <PUBCHEM_MMFF94_PARTIAL_CHARGES>
23
1 -0.36
10 0.08
12 0.08
13 -0.15
14 -0.15
15 0.54
16 -0.15
17 0.56
18 -0.15
19 -0.15
2 -0.36
20 -0.15
21 0.15
22 0.15
23 0.37
24 0.15
27 0.15
28 0.15
29 0.15
3 -0.57
4 -0.55
7 0.12
8 0.09

> <PUBCHEM_EFFECTIVE_ROTOR_COUNT>
0.8

> <PUBCHEM_PHARMACOPHORE_FEATURES>
9
1 1 acceptor
1 2 acceptor
1 3 acceptor
1 4 donor
5 1 2 10 12 17 rings
5 4 5 7 8 15 rings
6 5 6 7 9 11 13 rings
6 5 6 8 10 12 14 rings
6 9 11 16 18 19 20 rings

> <PUBCHEM_HEAVY_ATOM_COUNT>
20

> <PUBCHEM_ATOM_DEF_STEREO_COUNT>
0

> <PUBCHEM_ATOM_UDEF_STEREO_COUNT>
0

> <PUBCHEM_BOND_DEF_STEREO_COUNT>
0

> <PUBCHEM_BOND_UDEF_STEREO_COUNT>
0

> <PUBCHEM_ISOTOPIC_ATOM_COUNT>
0

> <PUBCHEM_COMPONENT_COUNT>
1

> <PUBCHEM_CACTVS_TAUTO_COUNT>
2

> <PUBCHEM_CONFORMER_ID>
0002450900000001

> <PUBCHEM_MMFF94_ENERGY>
74.1527

> <PUBCHEM_FEATURE_SELFOVERLAP>
46.097

> <PUBCHEM_SHAPE_FINGERPRINT>
10319926 262 18197473226906869154
10411042 1 18194402422930549674
10498660 4 18409166649255036588
10608611 8 18413386519274738632
10616163 171 18411139130292337086
10670039 82 18190472747921461428
10693767 8 16832325919808908783
10967382 1 16753530488039357412
1100329 8 18339084895024641529
11370993 70 18121491350255527108
11578080 2 17172605359585280756
12173636 292 18338794507658157732
12403259 226 18271240625206620832
12553582 1 18050570934639761918
12730499 353 17613999587035636677
12788726 201 18261953059071697530
13027679 85 18194682802911334109
13140716 1 18410856581151601682
138480 1 16465301185777097761
14178342 30 18336248069325671698
14223421 5 18413388756899796376
14790565 3 16967461963409686797
15042514 8 18409452479228540459
15196674 1 18410574032907950214
15309172 13 18123197792111814689
15442244 35 18264485092785544346
16087824 20 18410575077323488069
16945 1 18266458711218720198
17492 89 18409446973366141594
193761 8 18338516318226101954
19591789 44 17617945733744828878
19868273 325 18265331887862039562
20510252 161 18341895229295809978
20905425 154 18413674621233149318
21029758 11 18194957663702043703
21029758 27 18119819259362725467
21267235 1 18265624349824607430
21501502 16 18408601436033334554
21524375 3 17899984819870403240
221490 88 17327457433278101595
2334 1 18338516472797224502
23402539 116 18271518822664888031
23419403 2 17685462713979368173
23557571 272 18271256014132568710
23558518 356 18333736788730618778
23559900 14 18127973015147582550
238 59 16744490367929320173
2748010 2 18268421511230573350
3091708 16 9131314876242907489
335352 9 18050285869465946614
350125 39 18194408792313678600
352729 6 18339642213710974015
5104073 3 18411979174619455162
7097593 13 17754157709977248586
7364860 26 17186158665578845685
81228 2 18334860570870360064
9709674 26 18270964536008467526

> <PUBCHEM_SHAPE_MULTIPOLES>
389
5.91
3.88
0.6
4.71
1.05
0
-0.04
0
-3.4
0
0.04
0
0

> <PUBCHEM_SHAPE_SELFOVERLAP>
921.175

> <PUBCHEM_SHAPE_VOLUME>
195.4

> <PUBCHEM_COORDINATE_TYPE>
2
5
10

$$$$
