9548714
  -OEChem-09132016433D

 84 87  0     1  0  0  0  0  0999 V2000
   -1.1669    0.8290   -0.5740 C   0  0  1  0  0  0  0  0  0  0  0  0
    0.0301    1.6869    0.0576 C   0  0  1  0  0  0  0  0  0  0  0  0
   -1.6675   -0.1941    0.5370 C   0  0  1  0  0  0  0  0  0  0  0  0
   -3.0072   -0.9883    0.1996 C   0  0  2  0  0  0  0  0  0  0  0  0
    1.1569    0.7215    0.5088 C   0  0  1  0  0  0  0  0  0  0  0  0
   -4.0976    0.0887   -0.1761 C   0  0  1  0  0  0  0  0  0  0  0  0
   -2.3503    1.7378   -0.9976 C   0  0  0  0  0  0  0  0  0  0  0  0
   -0.5072   -1.0650    1.0968 C   0  0  0  0  0  0  0  0  0  0  0  0
    2.3446    1.6354    0.8360 C   0  0  2  0  0  0  0  0  0  0  0  0
    0.8483    2.5946   -0.8900 C   0  0  0  0  0  0  0  0  0  0  0  0
    0.6941   -0.2412    1.5904 C   0  0  0  0  0  0  0  0  0  0  0  0
   -3.6385    0.9812   -1.3478 C   0  0  0  0  0  0  0  0  0  0  0  0
   -5.5740   -0.4349   -0.2891 C   0  0  0  0  0  0  0  0  0  0  0  0
    2.2136    2.7796   -0.1933 C   0  0  0  0  0  0  0  0  0  0  0  0
   -3.4983   -1.7269    1.4842 C   0  0  0  0  0  0  0  0  0  0  0  0
   -0.6870    0.0936   -1.8589 C   0  0  0  0  0  0  0  0  0  0  0  0
   -0.4610    2.6067    1.2248 C   0  0  0  0  0  0  0  0  0  0  0  0
   -2.7806   -2.0591   -0.8935 C   0  0  0  0  0  0  0  0  0  0  0  0
   -5.9316   -1.2058    1.0057 C   0  0  0  0  0  0  0  0  0  0  0  0
    3.6912    0.9280    0.7523 C   0  0  1  0  0  0  0  0  0  0  0  0
   -4.9222   -2.2773    1.3920 C   0  0  0  0  0  0  0  0  0  0  0  0
   -5.8409   -1.3119   -1.5254 C   0  0  0  0  0  0  0  0  0  0  0  0
   -6.5601    0.7594   -0.3775 C   0  0  0  0  0  0  0  0  0  0  0  0
    3.9562    0.3135   -0.6375 C   0  0  0  0  0  0  0  0  0  0  0  0
    4.8199    1.9076    1.0961 C   0  0  0  0  0  0  0  0  0  0  0  0
    5.3205   -0.3632   -0.8257 C   0  0  0  0  0  0  0  0  0  0  0  0
    5.5330   -1.5745    0.0879 C   0  0  0  0  0  0  0  0  0  0  0  0
    6.9302   -2.2099   -0.0510 C   0  0  0  0  0  0  0  0  0  0  0  0
    8.0582   -1.2140    0.2238 C   0  0  0  0  0  0  0  0  0  0  0  0
    7.0942   -2.7970   -1.4555 C   0  0  0  0  0  0  0  0  0  0  0  0
   -1.9680    0.4241    1.3924 H   0  0  0  0  0  0  0  0  0  0  0  0
    1.4227    0.1075   -0.3512 H   0  0  0  0  0  0  0  0  0  0  0  0
   -4.1307    0.7690    0.6922 H   0  0  0  0  0  0  0  0  0  0  0  0
   -2.0581    2.3656   -1.8486 H   0  0  0  0  0  0  0  0  0  0  0  0
   -2.6146    2.4271   -0.1900 H   0  0  0  0  0  0  0  0  0  0  0  0
   -0.1534   -1.7709    0.3389 H   0  0  0  0  0  0  0  0  0  0  0  0
   -0.8543   -1.6679    1.9418 H   0  0  0  0  0  0  0  0  0  0  0  0
    2.2327    2.0418    1.8494 H   0  0  0  0  0  0  0  0  0  0  0  0
    0.3621    3.5553   -1.0890 H   0  0  0  0  0  0  0  0  0  0  0  0
    1.0416    2.1250   -1.8573 H   0  0  0  0  0  0  0  0  0  0  0  0
    0.4244    0.2965    2.5062 H   0  0  0  0  0  0  0  0  0  0  0  0
    1.5069   -0.9253    1.8602 H   0  0  0  0  0  0  0  0  0  0  0  0
   -4.3958    1.7398   -1.5702 H   0  0  0  0  0  0  0  0  0  0  0  0
   -3.5170    0.4065   -2.2693 H   0  0  0  0  0  0  0  0  0  0  0  0
    3.0102    2.8532   -0.9364 H   0  0  0  0  0  0  0  0  0  0  0  0
    2.2215    3.7377    0.3420 H   0  0  0  0  0  0  0  0  0  0  0  0
   -3.4555   -1.0406    2.3404 H   0  0  0  0  0  0  0  0  0  0  0  0
   -2.8305   -2.5631    1.7232 H   0  0  0  0  0  0  0  0  0  0  0  0
   -0.2672    0.7868   -2.5923 H   0  0  0  0  0  0  0  0  0  0  0  0
    0.0576   -0.6807   -1.6637 H   0  0  0  0  0  0  0  0  0  0  0  0
   -1.4987   -0.3929   -2.3967 H   0  0  0  0  0  0  0  0  0  0  0  0
   -1.1093    3.4060    0.8516 H   0  0  0  0  0  0  0  0  0  0  0  0
   -1.0059    2.0704    2.0031 H   0  0  0  0  0  0  0  0  0  0  0  0
    0.3578    3.1206    1.7370 H   0  0  0  0  0  0  0  0  0  0  0  0
   -3.0053   -1.6963   -1.8976 H   0  0  0  0  0  0  0  0  0  0  0  0
   -1.7550   -2.4355   -0.8996 H   0  0  0  0  0  0  0  0  0  0  0  0
   -3.4019   -2.9469   -0.7507 H   0  0  0  0  0  0  0  0  0  0  0  0
   -6.9234   -1.6665    0.9123 H   0  0  0  0  0  0  0  0  0  0  0  0
   -6.0053   -0.4957    1.8411 H   0  0  0  0  0  0  0  0  0  0  0  0
    3.6984    0.1304    1.5043 H   0  0  0  0  0  0  0  0  0  0  0  0
   -4.9742   -3.1132    0.6878 H   0  0  0  0  0  0  0  0  0  0  0  0
   -5.2026   -2.6941    2.3672 H   0  0  0  0  0  0  0  0  0  0  0  0
   -6.9111   -1.5348   -1.6177 H   0  0  0  0  0  0  0  0  0  0  0  0
   -5.3352   -2.2766   -1.4836 H   0  0  0  0  0  0  0  0  0  0  0  0
   -5.5381   -0.8088   -2.4492 H   0  0  0  0  0  0  0  0  0  0  0  0
   -6.3715    1.4924    0.4148 H   0  0  0  0  0  0  0  0  0  0  0  0
   -7.5978    0.4209   -0.2707 H   0  0  0  0  0  0  0  0  0  0  0  0
   -6.4939    1.2756   -1.3405 H   0  0  0  0  0  0  0  0  0  0  0  0
    3.2136   -0.4583   -0.8607 H   0  0  0  0  0  0  0  0  0  0  0  0
    3.8660    1.0626   -1.4297 H   0  0  0  0  0  0  0  0  0  0  0  0
    5.0028    2.6304    0.2946 H   0  0  0  0  0  0  0  0  0  0  0  0
    5.7574    1.3773    1.2920 H   0  0  0  0  0  0  0  0  0  0  0  0
    4.5841    2.4679    2.0078 H   0  0  0  0  0  0  0  0  0  0  0  0
    5.3766   -0.6874   -1.8716 H   0  0  0  0  0  0  0  0  0  0  0  0
    6.1120    0.3800   -0.6973 H   0  0  0  0  0  0  0  0  0  0  0  0
    4.7621   -2.3283   -0.1149 H   0  0  0  0  0  0  0  0  0  0  0  0
    5.4079   -1.2747    1.1345 H   0  0  0  0  0  0  0  0  0  0  0  0
    7.0010   -3.0270    0.6775 H   0  0  0  0  0  0  0  0  0  0  0  0
    7.9045   -0.7053    1.1810 H   0  0  0  0  0  0  0  0  0  0  0  0
    9.0188   -1.7386    0.2774 H   0  0  0  0  0  0  0  0  0  0  0  0
    8.1489   -0.4563   -0.5606 H   0  0  0  0  0  0  0  0  0  0  0  0
    6.2677   -3.4730   -1.6984 H   0  0  0  0  0  0  0  0  0  0  0  0
    8.0220   -3.3769   -1.5151 H   0  0  0  0  0  0  0  0  0  0  0  0
    7.1460   -2.0237   -2.2282 H   0  0  0  0  0  0  0  0  0  0  0  0
  1  2  1  0  0  0  0
  1  3  1  0  0  0  0
  1  7  1  0  0  0  0
  1 16  1  0  0  0  0
  2  5  1  0  0  0  0
  2 10  1  0  0  0  0
  2 17  1  0  0  0  0
  3  4  1  0  0  0  0
  3  8  1  0  0  0  0
  3 31  1  0  0  0  0
  4  6  1  0  0  0  0
  4 15  1  0  0  0  0
  4 18  1  0  0  0  0
  5  9  1  0  0  0  0
  5 11  1  0  0  0  0
  5 32  1  0  0  0  0
  6 12  1  0  0  0  0
  6 13  1  0  0  0  0
  6 33  1  0  0  0  0
  7 12  1  0  0  0  0
  7 34  1  0  0  0  0
  7 35  1  0  0  0  0
  8 11  1  0  0  0  0
  8 36  1  0  0  0  0
  8 37  1  0  0  0  0
  9 14  1  0  0  0  0
  9 20  1  0  0  0  0
  9 38  1  0  0  0  0
 10 14  1  0  0  0  0
 10 39  1  0  0  0  0
 10 40  1  0  0  0  0
 11 41  1  0  0  0  0
 11 42  1  0  0  0  0
 12 43  1  0  0  0  0
 12 44  1  0  0  0  0
 13 19  1  0  0  0  0
 13 22  1  0  0  0  0
 13 23  1  0  0  0  0
 14 45  1  0  0  0  0
 14 46  1  0  0  0  0
 15 21  1  0  0  0  0
 15 47  1  0  0  0  0
 15 48  1  0  0  0  0
 16 49  1  0  0  0  0
 16 50  1  0  0  0  0
 16 51  1  0  0  0  0
 17 52  1  0  0  0  0
 17 53  1  0  0  0  0
 17 54  1  0  0  0  0
 18 55  1  0  0  0  0
 18 56  1  0  0  0  0
 18 57  1  0  0  0  0
 19 21  1  0  0  0  0
 19 58  1  0  0  0  0
 19 59  1  0  0  0  0
 20 24  1  0  0  0  0
 20 25  1  0  0  0  0
 20 60  1  0  0  0  0
 21 61  1  0  0  0  0
 21 62  1  0  0  0  0
 22 63  1  0  0  0  0
 22 64  1  0  0  0  0
 22 65  1  0  0  0  0
 23 66  1  0  0  0  0
 23 67  1  0  0  0  0
 23 68  1  0  0  0  0
 24 26  1  0  0  0  0
 24 69  1  0  0  0  0
 24 70  1  0  0  0  0
 25 71  1  0  0  0  0
 25 72  1  0  0  0  0
 25 73  1  0  0  0  0
 26 27  1  0  0  0  0
 26 74  1  0  0  0  0
 26 75  1  0  0  0  0
 27 28  1  0  0  0  0
 27 76  1  0  0  0  0
 27 77  1  0  0  0  0
 28 29  1  0  0  0  0
 28 30  1  0  0  0  0
 28 78  1  0  0  0  0
 29 79  1  0  0  0  0
 29 80  1  0  0  0  0
 29 81  1  0  0  0  0
 30 82  1  0  0  0  0
 30 83  1  0  0  0  0
 30 84  1  0  0  0  0
M  END
> <PUBCHEM_COMPOUND_CID>
9548714

> <PUBCHEM_CONFORMER_RMSD>
0.8

> <PUBCHEM_CONFORMER_DIVERSEORDER>
1
2
6
8
3
5
7
4

> <PUBCHEM_MMFF94_PARTIAL_CHARGES>
0

> <PUBCHEM_EFFECTIVE_ROTOR_COUNT>
7.2

> <PUBCHEM_PHARMACOPHORE_FEATURES>
8
1 25 hydrophobe
3 13 22 23 hydrophobe
3 28 29 30 hydrophobe
5 2 5 9 10 14 rings
5 20 24 26 27 28 hydrophobe
6 1 2 3 5 8 11 rings
6 1 3 4 6 7 12 rings
6 4 6 13 15 19 21 rings

> <PUBCHEM_HEAVY_ATOM_COUNT>
30

> <PUBCHEM_ATOM_DEF_STEREO_COUNT>
8

> <PUBCHEM_ATOM_UDEF_STEREO_COUNT>
0

> <PUBCHEM_BOND_DEF_STEREO_COUNT>
0

> <PUBCHEM_BOND_UDEF_STEREO_COUNT>
0

> <PUBCHEM_ISOTOPIC_ATOM_COUNT>
0

> <PUBCHEM_COMPONENT_COUNT>
1

> <PUBCHEM_CACTVS_TAUTO_COUNT>
1

> <PUBCHEM_CONFORMER_ID>
0091B3AA00000001

> <PUBCHEM_MMFF94_ENERGY>
130.4286

> <PUBCHEM_FEATURE_SELFOVERLAP>
40.688

> <PUBCHEM_SHAPE_FINGERPRINT>
10622 236 17414694764600311671
10670039 82 16950276261611717228
10674148 151 18261391109392228793
11135609 12 18408880768296111832
11273773 46 18264490594311713454
11456790 92 17703802427130492851
12011746 2 18114168766671668597
12236239 1 16200157642000482777
12422481 6 16988300676292950821
12760667 363 18342740693460438154
12954195 1 18187644657167807061
13533116 47 18201999962980055360
13583140 156 17129014168792447441
13685833 64 18272650130657683806
13782708 43 18336545009831099579
13811026 1 18409444779127554314
14251764 30 18260833734475175378
14294032 229 16951960649049213549
14420673 8 18334861614901016059
14856354 85 16009032813321277139
14955137 171 18411138077888413905
15064986 96 18201733834117080915
15131766 46 16555909112881962832
15183329 4 16950283980148183866
15361156 5 18188213211742001774
15475509 8 18114184111793660957
15510800 12 18201167534110119118
15788980 27 18059016202349386677
17349148 13 16629695088343941121
1813 80 16081918386511323125
18603816 31 17703495667127857903
20105231 36 17603594032496820011
2026 5 18341894048096576926
21033650 10 16950562113192335316
21130935 74 18130222765433621067
21267235 1 17894916278443008419
21279426 13 18187357740546387233
21307412 95 18333453144600699471
21365058 113 17822017531254059284
21682296 61 18413392033606655783
21781051 124 17095531711564270242
23559900 14 18115307907314254069
23569914 152 17617343240307264647
23569917 315 18338520850461864295
23569943 247 18341892935541713683
3004659 81 17967250897681442080
335352 9 18187077331270088525
3383291 50 18411416194507148146
4098825 35 17894916239540461092
4107672 100 17313101904622348821
4258327 124 10879409769371492402
437815 12 18411700980501866144
439807 62 18260268517306470930
46194498 28 17822572811208130156
5104073 3 16343133761467411683
513202 73 18130511846570572601
563151 40 17678462961317758209
59682541 35 10879988095244107631
59755656 215 18186798054800227426
6608658 132 15502649352292036068
86090 222 17202781315040136262
999808 66 18342741776309382550

> <PUBCHEM_SHAPE_MULTIPOLES>
617.39
18.11
3.01
1.53
19.09
0.36
-0.07
-14.71
-2.42
2.57
0
-0.7
-0.26
2.2

> <PUBCHEM_SHAPE_SELFOVERLAP>
1265.883

> <PUBCHEM_SHAPE_VOLUME>
356.3

> <PUBCHEM_COORDINATE_TYPE>
2
5
10

$$$$
