13909684
  -OEChem-09132016352D

122128  0     1  0  0  0  0  0999 V2000
    7.8620    4.6363    0.0000 O   0  0  0  0  0  0  0  0  0  0  0  0
    6.0010   -4.6222    0.0000 O   0  0  0  0  0  0  0  0  0  0  0  0
    5.1350   -3.1223    0.0000 O   0  0  0  0  0  0  0  0  0  0  0  0
    9.5940    4.6163    0.0000 O   0  0  0  0  0  0  0  0  0  0  0  0
    4.2690   -4.6222    0.0000 O   0  0  0  0  0  0  0  0  0  0  0  0
    7.8852    6.6362    0.0000 O   0  0  0  0  0  0  0  0  0  0  0  0
    9.6286    7.6161    0.0000 O   0  0  0  0  0  0  0  0  0  0  0  0
   11.3490    6.5961    0.0000 O   0  0  0  0  0  0  0  0  0  0  0  0
    6.0010   -6.6222    0.0000 O   0  0  0  0  0  0  0  0  0  0  0  0
    4.2690   -7.6222    0.0000 O   0  0  0  0  0  0  0  0  0  0  0  0
    2.5369   -6.6222    0.0000 O   0  0  0  0  0  0  0  0  0  0  0  0
   12.1976    5.0862    0.0000 O   0  0  0  0  0  0  0  0  0  0  0  0
   11.3143    3.5963    0.0000 O   0  0  0  0  0  0  0  0  0  0  0  0
    2.5369   -3.6222    0.0000 O   0  0  0  0  0  0  0  0  0  0  0  0
    6.9067   -0.0532    0.0000 C   0  0  2  0  0  0  0  0  0  0  0  0
    7.7765    0.4401    0.0000 C   0  0  1  0  0  0  0  0  0  0  0  0
    7.8006    1.4815    0.0000 C   0  0  2  0  0  0  0  0  0  0  0  0
    6.8990   -1.0532    0.0000 C   0  0  1  0  0  0  0  0  0  0  0  0
    6.9067    2.0161    0.0000 C   0  0  1  0  0  0  0  0  0  0  0  0
    6.0006    0.4606    0.0000 C   0  0  0  0  0  0  0  0  0  0  0  0
    6.0006    1.5023    0.0000 C   0  0  0  0  0  0  0  0  0  0  0  0
    6.9067    3.1011    0.0000 C   0  0  0  0  0  0  0  0  0  0  0  0
    7.7611   -1.5598    0.0000 C   0  0  0  0  0  0  0  0  0  0  0  0
    7.7691   -2.6014    0.0000 C   0  0  1  0  0  0  0  0  0  0  0  0
    8.6387   -0.0666    0.0000 C   0  0  0  0  0  0  0  0  0  0  0  0
    8.7565    1.9947    0.0000 C   0  0  0  0  0  0  0  0  0  0  0  0
    5.9851   -1.5530    0.0000 C   0  0  0  0  0  0  0  0  0  0  0  0
    6.8671   -3.1223    0.0000 C   0  0  1  0  0  0  0  0  0  0  0  0
    5.9206   -0.2192    0.0000 C   0  0  0  0  0  0  0  0  0  0  0  0
    7.8505    3.6364    0.0000 C   0  0  2  0  0  0  0  0  0  0  0  0
    5.9690   -2.5945    0.0000 C   0  0  0  0  0  0  0  0  0  0  0  0
    8.6588    0.9682    0.0000 C   0  0  0  0  0  0  0  0  0  0  0  0
    8.6310   -1.0665    0.0000 C   0  0  0  0  0  0  0  0  0  0  0  0
    8.7816    3.0794    0.0000 C   0  0  0  0  0  0  0  0  0  0  0  0
    5.9155   -0.8719    0.0000 C   0  0  0  0  0  0  0  0  0  0  0  0
    8.7170   -3.1294    0.0000 C   0  0  0  0  0  0  0  0  0  0  0  0
    6.8503   -4.2071    0.0000 C   0  0  0  0  0  0  0  0  0  0  0  0
    8.7254   -4.2143    0.0000 C   0  0  0  0  0  0  0  0  0  0  0  0
    6.4100    3.9691    0.0000 C   0  0  0  0  0  0  0  0  0  0  0  0
    5.9067    3.1050    0.0000 C   0  0  0  0  0  0  0  0  0  0  0  0
    7.7858   -4.7568    0.0000 C   0  0  0  0  0  0  0  0  0  0  0  0
    6.0010   -3.6222    0.0000 C   0  0  0  0  0  0  0  0  0  0  0  0
    9.7254   -4.2105    0.0000 C   0  0  0  0  0  0  0  0  0  0  0  0
    9.2287   -5.0784    0.0000 C   0  0  0  0  0  0  0  0  0  0  0  0
    8.7338    5.1262    0.0000 C   0  0  2  0  0  0  0  0  0  0  0  0
    8.7453    6.1262    0.0000 C   0  0  1  0  0  0  0  0  0  0  0  0
    5.1350   -5.1222    0.0000 C   0  0  2  0  0  0  0  0  0  0  0  0
    9.6171    6.6161    0.0000 C   0  0  2  0  0  0  0  0  0  0  0  0
   10.4657    5.1062    0.0000 C   0  0  1  0  0  0  0  0  0  0  0  0
   10.4773    6.1062    0.0000 C   0  0  1  0  0  0  0  0  0  0  0  0
    5.1350   -6.1222    0.0000 C   0  0  1  0  0  0  0  0  0  0  0  0
    4.2690   -6.6222    0.0000 C   0  0  2  0  0  0  0  0  0  0  0  0
    3.4030   -5.1222    0.0000 C   0  0  1  0  0  0  0  0  0  0  0  0
    3.4030   -6.1222    0.0000 C   0  0  1  0  0  0  0  0  0  0  0  0
   11.3259    4.5962    0.0000 C   0  0  0  0  0  0  0  0  0  0  0  0
    2.5369   -4.6222    0.0000 C   0  0  0  0  0  0  0  0  0  0  0  0
    8.5191    0.8537    0.0000 H   0  0  0  0  0  0  0  0  0  0  0  0
    6.1722    2.4440    0.0000 H   0  0  0  0  0  0  0  0  0  0  0  0
    5.3898    0.5667    0.0000 H   0  0  0  0  0  0  0  0  0  0  0  0
    5.7916   -0.1230    0.0000 H   0  0  0  0  0  0  0  0  0  0  0  0
    5.7916    2.0860    0.0000 H   0  0  0  0  0  0  0  0  0  0  0  0
    5.3898    1.3962    0.0000 H   0  0  0  0  0  0  0  0  0  0  0  0
    8.5003   -2.1680    0.0000 H   0  0  0  0  0  0  0  0  0  0  0  0
    9.2484   -0.1789    0.0000 H   0  0  0  0  0  0  0  0  0  0  0  0
    8.8552    0.5144    0.0000 H   0  0  0  0  0  0  0  0  0  0  0  0
    8.9520    1.4064    0.0000 H   0  0  0  0  0  0  0  0  0  0  0  0
    9.3697    2.0867    0.0000 H   0  0  0  0  0  0  0  0  0  0  0  0
    5.7850   -0.9661    0.0000 H   0  0  0  0  0  0  0  0  0  0  0  0
    5.3727   -1.6496    0.0000 H   0  0  0  0  0  0  0  0  0  0  0  0
    5.8176    0.3922    0.0000 H   0  0  0  0  0  0  0  0  0  0  0  0
    5.3092   -0.3221    0.0000 H   0  0  0  0  0  0  0  0  0  0  0  0
    6.0235   -0.8306    0.0000 H   0  0  0  0  0  0  0  0  0  0  0  0
    7.3165    3.9515    0.0000 H   0  0  0  0  0  0  0  0  0  0  0  0
    5.3599   -2.4790    0.0000 H   0  0  0  0  0  0  0  0  0  0  0  0
    5.7510   -3.1749    0.0000 H   0  0  0  0  0  0  0  0  0  0  0  0
    8.3406    0.4361    0.0000 H   0  0  0  0  0  0  0  0  0  0  0  0
    9.1909    0.6499    0.0000 H   0  0  0  0  0  0  0  0  0  0  0  0
    8.9771    1.5003    0.0000 H   0  0  0  0  0  0  0  0  0  0  0  0
    9.1655   -1.3806    0.0000 H   0  0  0  0  0  0  0  0  0  0  0  0
    9.3899    2.9592    0.0000 H   0  0  0  0  0  0  0  0  0  0  0  0
    9.0041    3.6581    0.0000 H   0  0  0  0  0  0  0  0  0  0  0  0
    6.0279   -0.2622    0.0000 H   0  0  0  0  0  0  0  0  0  0  0  0
    5.3058   -0.7596    0.0000 H   0  0  0  0  0  0  0  0  0  0  0  0
    5.8032   -1.4817    0.0000 H   0  0  0  0  0  0  0  0  0  0  0  0
    9.3287   -3.2308    0.0000 H   0  0  0  0  0  0  0  0  0  0  0  0
    8.9216   -2.5441    0.0000 H   0  0  0  0  0  0  0  0  0  0  0  0
    6.2412   -4.0916    0.0000 H   0  0  0  0  0  0  0  0  0  0  0  0
    6.6323   -4.7875    0.0000 H   0  0  0  0  0  0  0  0  0  0  0  0
    6.9481    4.2770    0.0000 H   0  0  0  0  0  0  0  0  0  0  0  0
    6.1021    4.5072    0.0000 H   0  0  0  0  0  0  0  0  0  0  0  0
    5.8719    3.6611    0.0000 H   0  0  0  0  0  0  0  0  0  0  0  0
    5.9091    3.7250    0.0000 H   0  0  0  0  0  0  0  0  0  0  0  0
    5.2867    3.1074    0.0000 H   0  0  0  0  0  0  0  0  0  0  0  0
    5.9043    2.4850    0.0000 H   0  0  0  0  0  0  0  0  0  0  0  0
    7.3848   -5.2297    0.0000 H   0  0  0  0  0  0  0  0  0  0  0  0
    8.1831   -5.2328    0.0000 H   0  0  0  0  0  0  0  0  0  0  0  0
    9.7278   -4.8305    0.0000 H   0  0  0  0  0  0  0  0  0  0  0  0
   10.3454   -4.2081    0.0000 H   0  0  0  0  0  0  0  0  0  0  0  0
    9.7230   -3.5905    0.0000 H   0  0  0  0  0  0  0  0  0  0  0  0
    8.6930   -5.3905    0.0000 H   0  0  0  0  0  0  0  0  0  0  0  0
    9.5408   -5.6142    0.0000 H   0  0  0  0  0  0  0  0  0  0  0  0
    9.7645   -4.7664    0.0000 H   0  0  0  0  0  0  0  0  0  0  0  0
    8.7266    4.5063    0.0000 H   0  0  0  0  0  0  0  0  0  0  0  0
    8.7525    6.7461    0.0000 H   0  0  0  0  0  0  0  0  0  0  0  0
    5.1350   -4.5022    0.0000 H   0  0  0  0  0  0  0  0  0  0  0  0
   10.1576    6.9199    0.0000 H   0  0  0  0  0  0  0  0  0  0  0  0
   10.4585    4.4862    0.0000 H   0  0  0  0  0  0  0  0  0  0  0  0
   11.0106    5.7900    0.0000 H   0  0  0  0  0  0  0  0  0  0  0  0
    5.1350   -6.7422    0.0000 H   0  0  0  0  0  0  0  0  0  0  0  0
    7.8923    7.2561    0.0000 H   0  0  0  0  0  0  0  0  0  0  0  0
    3.7320   -6.9322    0.0000 H   0  0  0  0  0  0  0  0  0  0  0  0
    3.4030   -4.5022    0.0000 H   0  0  0  0  0  0  0  0  0  0  0  0
    3.4030   -6.7422    0.0000 H   0  0  0  0  0  0  0  0  0  0  0  0
    9.0953    7.9322    0.0000 H   0  0  0  0  0  0  0  0  0  0  0  0
   11.3562    7.2161    0.0000 H   0  0  0  0  0  0  0  0  0  0  0  0
    6.5380   -6.3122    0.0000 H   0  0  0  0  0  0  0  0  0  0  0  0
    1.9264   -4.5146    0.0000 H   0  0  0  0  0  0  0  0  0  0  0  0
    2.3249   -5.2049    0.0000 H   0  0  0  0  0  0  0  0  0  0  0  0
    3.7320   -7.9322    0.0000 H   0  0  0  0  0  0  0  0  0  0  0  0
    2.0000   -6.3122    0.0000 H   0  0  0  0  0  0  0  0  0  0  0  0
   12.7310    4.7700    0.0000 H   0  0  0  0  0  0  0  0  0  0  0  0
    2.0000   -3.3122    0.0000 H   0  0  0  0  0  0  0  0  0  0  0  0
 30  1  1  1  0  0  0
 45  1  1  1  0  0  0
  2 42  1  0  0  0  0
 47  2  1  1  0  0  0
  3 42  2  0  0  0  0
  4 45  1  0  0  0  0
  4 49  1  0  0  0  0
  5 47  1  0  0  0  0
  5 53  1  0  0  0  0
 46  6  1  6  0  0  0
  6110  1  0  0  0  0
 48  7  1  1  0  0  0
  7114  1  0  0  0  0
 50  8  1  6  0  0  0
  8115  1  0  0  0  0
 51  9  1  6  0  0  0
  9116  1  0  0  0  0
 52 10  1  1  0  0  0
 10119  1  0  0  0  0
 54 11  1  6  0  0  0
 11120  1  0  0  0  0
 12 55  1  0  0  0  0
 12121  1  0  0  0  0
 13 55  2  0  0  0  0
 14 56  1  0  0  0  0
 14122  1  0  0  0  0
 15 16  1  0  0  0  0
 15 18  1  0  0  0  0
 15 20  1  0  0  0  0
 15 29  1  1  0  0  0
 16 17  1  0  0  0  0
 16 25  1  0  0  0  0
 16 57  1  6  0  0  0
 17 19  1  0  0  0  0
 17 26  1  0  0  0  0
 17 32  1  1  0  0  0
 18 23  1  0  0  0  0
 18 27  1  0  0  0  0
 18 35  1  6  0  0  0
 19 21  1  0  0  0  0
 19 22  1  0  0  0  0
 19 58  1  6  0  0  0
 20 21  1  0  0  0  0
 20 59  1  0  0  0  0
 20 60  1  0  0  0  0
 21 61  1  0  0  0  0
 21 62  1  0  0  0  0
 22 30  1  0  0  0  0
 22 39  1  0  0  0  0
 22 40  1  0  0  0  0
 23 24  1  0  0  0  0
 23 33  2  0  0  0  0
 24 28  1  0  0  0  0
 24 36  1  0  0  0  0
 24 63  1  1  0  0  0
 25 33  1  0  0  0  0
 25 64  1  0  0  0  0
 25 65  1  0  0  0  0
 26 34  1  0  0  0  0
 26 66  1  0  0  0  0
 26 67  1  0  0  0  0
 27 31  1  0  0  0  0
 27 68  1  0  0  0  0
 27 69  1  0  0  0  0
 28 31  1  0  0  0  0
 28 37  1  0  0  0  0
 28 42  1  1  0  0  0
 29 70  1  0  0  0  0
 29 71  1  0  0  0  0
 29 72  1  0  0  0  0
 30 34  1  0  0  0  0
 30 73  1  0  0  0  0
 31 74  1  0  0  0  0
 31 75  1  0  0  0  0
 32 76  1  0  0  0  0
 32 77  1  0  0  0  0
 32 78  1  0  0  0  0
 33 79  1  0  0  0  0
 34 80  1  0  0  0  0
 34 81  1  0  0  0  0
 35 82  1  0  0  0  0
 35 83  1  0  0  0  0
 35 84  1  0  0  0  0
 36 38  1  0  0  0  0
 36 85  1  0  0  0  0
 36 86  1  0  0  0  0
 37 41  1  0  0  0  0
 37 87  1  0  0  0  0
 37 88  1  0  0  0  0
 38 41  1  0  0  0  0
 38 43  1  0  0  0  0
 38 44  1  0  0  0  0
 39 89  1  0  0  0  0
 39 90  1  0  0  0  0
 39 91  1  0  0  0  0
 40 92  1  0  0  0  0
 40 93  1  0  0  0  0
 40 94  1  0  0  0  0
 41 95  1  0  0  0  0
 41 96  1  0  0  0  0
 43 97  1  0  0  0  0
 43 98  1  0  0  0  0
 43 99  1  0  0  0  0
 44100  1  0  0  0  0
 44101  1  0  0  0  0
 44102  1  0  0  0  0
 45 46  1  0  0  0  0
 45103  1  0  0  0  0
 46 48  1  0  0  0  0
 46104  1  0  0  0  0
 47 51  1  0  0  0  0
 47105  1  0  0  0  0
 48 50  1  0  0  0  0
 48106  1  0  0  0  0
 49 50  1  0  0  0  0
 49 55  1  1  0  0  0
 49107  1  0  0  0  0
 50108  1  0  0  0  0
 51 52  1  0  0  0  0
 51109  1  0  0  0  0
 52 54  1  0  0  0  0
 52111  1  0  0  0  0
 53 54  1  0  0  0  0
 53 56  1  1  0  0  0
 53112  1  0  0  0  0
 54113  1  0  0  0  0
 56117  1  0  0  0  0
 56118  1  0  0  0  0
M  END
> <PUBCHEM_COMPOUND_CID>
13909684

> <PUBCHEM_COMPOUND_CANONICALIZED>
1

> <PUBCHEM_CACTVS_COMPLEXITY>
1560

> <PUBCHEM_CACTVS_HBOND_ACCEPTOR>
14

> <PUBCHEM_CACTVS_HBOND_DONOR>
8

> <PUBCHEM_CACTVS_ROTATABLE_BOND>
7

> <PUBCHEM_CACTVS_SUBSKEYS>
AAADcfB8PAAAAAAAAAAAAAAAAAAAAAAAAAA0aMGCAAAAAADAAAAAGgAACAAADxSwgAMCCAAABgCIAiDSCAIAAAAgAAAACAFAAAgREBYAAQQiQAAFoAAPAAPK7PzPgAAAAAAAAADAAAYAADAAAAAAAAAAAA==

> <PUBCHEM_IUPAC_OPENEYE_NAME>
(2S,3S,4S,5R,6R)-6-[[(3S,4aR,6aR,6bS,8aS,12aS,14aR,14bR)-4,4,6a,6b,11,11,14b-heptamethyl-8a-[(2S,3R,4S,5S,6R)-3,4,5-trihydroxy-6-(hydroxymethyl)tetrahydropyran-2-yl]oxycarbonyl-1,2,3,4a,5,6,7,8,9,10,12,12a,14,14a-tetradecahydropicen-3-yl]oxy]-3,4,5-trihydroxy-tetrahydropyran-2-carboxylic acid

> <PUBCHEM_IUPAC_CAS_NAME>
(2S,3S,4S,5R,6R)-6-[[(3S,4aR,6aR,6bS,8aS,12aS,14aR,14bR)-4,4,6a,6b,11,11,14b-heptamethyl-8a-[oxo-[[(2S,3R,4S,5S,6R)-3,4,5-trihydroxy-6-(hydroxymethyl)-2-oxanyl]oxy]methyl]-1,2,3,4a,5,6,7,8,9,10,12,12a,14,14a-tetradecahydropicen-3-yl]oxy]-3,4,5-trihydroxy-2-oxanecarboxylic acid

> <PUBCHEM_IUPAC_NAME_MARKUP>
(2<I>S</I>,3<I>S</I>,4<I>S</I>,5<I>R</I>,6<I>R</I>)-6-[[(3<I>S</I>,4<I>a</I><I>R</I>,6<I>a</I><I>R</I>,6<I>b</I><I>S</I>,8<I>a</I><I>S</I>,12<I>a</I><I>S</I>,14<I>a</I><I>R</I>,14<I>b</I><I>R</I>)-4,4,6<I>a</I>,6<I>b</I>,11,11,14<I>b</I>-heptamethyl-8<I>a</I>-[(2<I>S</I>,3<I>R</I>,4<I>S</I>,5<I>S</I>,6<I>R</I>)-3,4,5-trihydroxy-6-(hydroxymethyl)oxan-2-yl]oxycarbonyl-1,2,3,4<I>a</I>,5,6,7,8,9,10,12,12<I>a</I>,14,14<I>a</I>-tetradecahydropicen-3-yl]oxy]-3,4,5-trihydroxyoxane-2-carboxylic acid

> <PUBCHEM_IUPAC_NAME>
(2S,3S,4S,5R,6R)-6-[[(3S,4aR,6aR,6bS,8aS,12aS,14aR,14bR)-4,4,6a,6b,11,11,14b-heptamethyl-8a-[(2S,3R,4S,5S,6R)-3,4,5-trihydroxy-6-(hydroxymethyl)oxan-2-yl]oxycarbonyl-1,2,3,4a,5,6,7,8,9,10,12,12a,14,14a-tetradecahydropicen-3-yl]oxy]-3,4,5-trihydroxyoxane-2-carboxylic acid

> <PUBCHEM_IUPAC_SYSTEMATIC_NAME>
(2S,3S,4S,5R,6R)-6-[[(3S,4aR,6aR,6bS,8aS,12aS,14aR,14bR)-8a-[(2S,3R,4S,5S,6R)-6-(hydroxymethyl)-3,4,5-tris(oxidanyl)oxan-2-yl]oxycarbonyl-4,4,6a,6b,11,11,14b-heptamethyl-1,2,3,4a,5,6,7,8,9,10,12,12a,14,14a-tetradecahydropicen-3-yl]oxy]-3,4,5-tris(oxidanyl)oxane-2-carboxylic acid

> <PUBCHEM_IUPAC_TRADITIONAL_NAME>
(2S,3S,4S,5R,6R)-6-[[(3S,4aR,6aR,6bS,8aS,12aS,14aR,14bR)-4,4,6a,6b,11,11,14b-heptamethyl-8a-[(2S,3R,4S,5S,6R)-3,4,5-trihydroxy-6-methylol-tetrahydropyran-2-yl]oxycarbonyl-1,2,3,4a,5,6,7,8,9,10,12,12a,14,14a-tetradecahydropicen-3-yl]oxy]-3,4,5-trihydroxy-tetrahydropyran-2-carboxylic acid

> <PUBCHEM_IUPAC_INCHI>
InChI=1S/C42H66O14/c1-37(2)14-16-42(36(52)56-34-30(48)27(45)26(44)22(19-43)53-34)17-15-40(6)20(21(42)18-37)8-9-24-39(5)12-11-25(38(3,4)23(39)10-13-41(24,40)7)54-35-31(49)28(46)29(47)32(55-35)33(50)51/h8,21-32,34-35,43-49H,9-19H2,1-7H3,(H,50,51)/t21-,22+,23-,24+,25-,26+,27-,28-,29-,30+,31+,32-,34-,35+,39-,40+,41+,42-/m0/s1

> <PUBCHEM_IUPAC_INCHIKEY>
YOSRLTNUOCHBEA-SGVKAIFKSA-N

> <PUBCHEM_XLOGP3_AA>
4.3

> <PUBCHEM_EXACT_MASS>
794.445257

> <PUBCHEM_MOLECULAR_FORMULA>
C42H66O14

> <PUBCHEM_MOLECULAR_WEIGHT>
795

> <PUBCHEM_OPENEYE_CAN_SMILES>
CC1(CCC2(CCC3(C(=CCC4C3(CCC5C4(CCC(C5(C)C)OC6C(C(C(C(O6)C(=O)O)O)O)O)C)C)C2C1)C)C(=O)OC7C(C(C(C(O7)CO)O)O)O)C

> <PUBCHEM_OPENEYE_ISO_SMILES>
C[C@]12CC[C@@H](C([C@@H]1CC[C@@]3([C@@H]2CC=C4[C@]3(CC[C@@]5([C@H]4CC(CC5)(C)C)C(=O)O[C@H]6[C@@H]([C@H]([C@@H]([C@H](O6)CO)O)O)O)C)C)(C)C)O[C@H]7[C@@H]([C@H]([C@@H]([C@H](O7)C(=O)O)O)O)O

> <PUBCHEM_CACTVS_TPSA>
233

> <PUBCHEM_MONOISOTOPIC_WEIGHT>
794.445257

> <PUBCHEM_TOTAL_CHARGE>
0

> <PUBCHEM_HEAVY_ATOM_COUNT>
56

> <PUBCHEM_ATOM_DEF_STEREO_COUNT>
18

> <PUBCHEM_ATOM_UDEF_STEREO_COUNT>
0

> <PUBCHEM_BOND_DEF_STEREO_COUNT>
0

> <PUBCHEM_BOND_UDEF_STEREO_COUNT>
0

> <PUBCHEM_ISOTOPIC_ATOM_COUNT>
0

> <PUBCHEM_COMPONENT_COUNT>
1

> <PUBCHEM_CACTVS_TAUTO_COUNT>
-1

> <PUBCHEM_COORDINATE_TYPE>
1
5
255

> <PUBCHEM_BONDANNOTATIONS>
30  1  5
45  1  5
52  10  5
54  11  6
15  29  5
16  57  6
17  32  5
18  35  6
19  58  6
47  2  5
24  63  5
28  42  5
49  55  5
53  56  5
46  6  6
48  7  5
50  8  6
51  9  6

$$$$
