10079497
  -OEChem-09132016072D

139146  0     1  0  0  0  0  0999 V2000
    7.8620    3.3522    0.0000 O   0  0  0  0  0  0  0  0  0  0  0  0
    6.0010   -5.9063    0.0000 O   0  0  0  0  0  0  0  0  0  0  0  0
    5.1350   -4.4063    0.0000 O   0  0  0  0  0  0  0  0  0  0  0  0
    9.5940    3.3322    0.0000 O   0  0  0  0  0  0  0  0  0  0  0  0
    4.2690   -5.9063    0.0000 O   0  0  0  0  0  0  0  0  0  0  0  0
    7.8852    5.3521    0.0000 O   0  0  0  0  0  0  0  0  0  0  0  0
    9.6286    6.3320    0.0000 O   0  0  0  0  0  0  0  0  0  0  0  0
   11.3490    5.3120    0.0000 O   0  0  0  0  0  0  0  0  0  0  0  0
    6.0010   -7.9063    0.0000 O   0  0  0  0  0  0  0  0  0  0  0  0
    4.2690   -8.9063    0.0000 O   0  0  0  0  0  0  0  0  0  0  0  0
    2.5369   -7.9063    0.0000 O   0  0  0  0  0  0  0  0  0  0  0  0
   12.1976    3.8021    0.0000 O   0  0  0  0  0  0  0  0  0  0  0  0
   11.3143    2.3122    0.0000 O   0  0  0  0  0  0  0  0  0  0  0  0
   10.5584    6.9090    0.0000 O   0  0  0  0  0  0  0  0  0  0  0  0
    2.5369   -4.9063    0.0000 O   0  0  0  0  0  0  0  0  0  0  0  0
   13.1238    6.5703    0.0000 O   0  0  0  0  0  0  0  0  0  0  0  0
   12.4754    8.6471    0.0000 O   0  0  0  0  0  0  0  0  0  0  0  0
    9.3044    8.5792    0.0000 O   0  0  0  0  0  0  0  0  0  0  0  0
    6.9067   -1.3373    0.0000 C   0  0  2  0  0  0  0  0  0  0  0  0
    7.7765   -0.8440    0.0000 C   0  0  1  0  0  0  0  0  0  0  0  0
    7.8006    0.1974    0.0000 C   0  0  2  0  0  0  0  0  0  0  0  0
    6.8990   -2.3373    0.0000 C   0  0  1  0  0  0  0  0  0  0  0  0
    6.9067    0.7320    0.0000 C   0  0  2  0  0  0  0  0  0  0  0  0
    6.0006   -0.8234    0.0000 C   0  0  0  0  0  0  0  0  0  0  0  0
    6.9067    1.8170    0.0000 C   0  0  0  0  0  0  0  0  0  0  0  0
    6.0006    0.2182    0.0000 C   0  0  0  0  0  0  0  0  0  0  0  0
    7.7611   -2.8439    0.0000 C   0  0  0  0  0  0  0  0  0  0  0  0
    7.7691   -3.8855    0.0000 C   0  0  1  0  0  0  0  0  0  0  0  0
    8.6387   -1.3506    0.0000 C   0  0  0  0  0  0  0  0  0  0  0  0
    8.7565    0.7106    0.0000 C   0  0  0  0  0  0  0  0  0  0  0  0
    5.9851   -2.8371    0.0000 C   0  0  0  0  0  0  0  0  0  0  0  0
    6.8671   -4.4063    0.0000 C   0  0  1  0  0  0  0  0  0  0  0  0
    5.9206   -1.5033    0.0000 C   0  0  0  0  0  0  0  0  0  0  0  0
    7.8505    2.3523    0.0000 C   0  0  2  0  0  0  0  0  0  0  0  0
    5.9690   -3.8786    0.0000 C   0  0  0  0  0  0  0  0  0  0  0  0
    8.6588   -0.3159    0.0000 C   0  0  0  0  0  0  0  0  0  0  0  0
    8.6310   -2.3506    0.0000 C   0  0  0  0  0  0  0  0  0  0  0  0
    8.7816    1.7953    0.0000 C   0  0  0  0  0  0  0  0  0  0  0  0
    5.9155   -2.1560    0.0000 C   0  0  0  0  0  0  0  0  0  0  0  0
    8.7170   -4.4135    0.0000 C   0  0  0  0  0  0  0  0  0  0  0  0
    6.8503   -5.4912    0.0000 C   0  0  0  0  0  0  0  0  0  0  0  0
    8.7254   -5.4984    0.0000 C   0  0  0  0  0  0  0  0  0  0  0  0
    6.4100    2.6850    0.0000 C   0  0  0  0  0  0  0  0  0  0  0  0
    5.9067    1.8209    0.0000 C   0  0  0  0  0  0  0  0  0  0  0  0
    7.7858   -6.0409    0.0000 C   0  0  0  0  0  0  0  0  0  0  0  0
    6.0010   -4.9063    0.0000 C   0  0  0  0  0  0  0  0  0  0  0  0
    9.7254   -5.4946    0.0000 C   0  0  0  0  0  0  0  0  0  0  0  0
    9.2287   -6.3625    0.0000 C   0  0  0  0  0  0  0  0  0  0  0  0
    8.7338    3.8422    0.0000 C   0  0  2  0  0  0  0  0  0  0  0  0
    8.7453    4.8421    0.0000 C   0  0  1  0  0  0  0  0  0  0  0  0
    5.1350   -6.4063    0.0000 C   0  0  2  0  0  0  0  0  0  0  0  0
    9.6171    5.3320    0.0000 C   0  0  2  0  0  0  0  0  0  0  0  0
   10.4657    3.8221    0.0000 C   0  0  1  0  0  0  0  0  0  0  0  0
   10.4773    4.8220    0.0000 C   0  0  1  0  0  0  0  0  0  0  0  0
    5.1350   -7.4063    0.0000 C   0  0  1  0  0  0  0  0  0  0  0  0
    4.2690   -7.9063    0.0000 C   0  0  2  0  0  0  0  0  0  0  0  0
    3.4030   -6.4063    0.0000 C   0  0  1  0  0  0  0  0  0  0  0  0
    3.4030   -7.4063    0.0000 C   0  0  1  0  0  0  0  0  0  0  0  0
   11.3259    3.3121    0.0000 C   0  0  0  0  0  0  0  0  0  0  0  0
    2.5369   -5.9063    0.0000 C   0  0  0  0  0  0  0  0  0  0  0  0
   11.3606    6.3119    0.0000 C   0  0  2  0  0  0  0  0  0  0  0  0
   12.1763    6.8903    0.0000 C   0  0  1  0  0  0  0  0  0  0  0  0
   11.8783    7.8449    0.0000 C   0  0  2  0  0  0  0  0  0  0  0  0
   10.8784    7.8565    0.0000 C   0  0  2  0  0  0  0  0  0  0  0  0
   10.3000    8.6722    0.0000 C   0  0  0  0  0  0  0  0  0  0  0  0
    8.5191   -0.4304    0.0000 H   0  0  0  0  0  0  0  0  0  0  0  0
    6.1722    1.1599    0.0000 H   0  0  0  0  0  0  0  0  0  0  0  0
    5.3898   -0.7174    0.0000 H   0  0  0  0  0  0  0  0  0  0  0  0
    5.7916   -1.4071    0.0000 H   0  0  0  0  0  0  0  0  0  0  0  0
    5.7916    0.8019    0.0000 H   0  0  0  0  0  0  0  0  0  0  0  0
    5.3898    0.1121    0.0000 H   0  0  0  0  0  0  0  0  0  0  0  0
    8.5003   -3.4520    0.0000 H   0  0  0  0  0  0  0  0  0  0  0  0
    9.2484   -1.4630    0.0000 H   0  0  0  0  0  0  0  0  0  0  0  0
    8.8552   -0.7697    0.0000 H   0  0  0  0  0  0  0  0  0  0  0  0
    8.9520    0.1223    0.0000 H   0  0  0  0  0  0  0  0  0  0  0  0
    9.3697    0.8026    0.0000 H   0  0  0  0  0  0  0  0  0  0  0  0
    5.7850   -2.2502    0.0000 H   0  0  0  0  0  0  0  0  0  0  0  0
    5.3727   -2.9337    0.0000 H   0  0  0  0  0  0  0  0  0  0  0  0
    5.8176   -0.8919    0.0000 H   0  0  0  0  0  0  0  0  0  0  0  0
    5.3092   -1.6062    0.0000 H   0  0  0  0  0  0  0  0  0  0  0  0
    6.0235   -2.1147    0.0000 H   0  0  0  0  0  0  0  0  0  0  0  0
    7.3165    2.6674    0.0000 H   0  0  0  0  0  0  0  0  0  0  0  0
    5.3599   -3.7631    0.0000 H   0  0  0  0  0  0  0  0  0  0  0  0
    5.7510   -4.4590    0.0000 H   0  0  0  0  0  0  0  0  0  0  0  0
    8.3406   -0.8480    0.0000 H   0  0  0  0  0  0  0  0  0  0  0  0
    9.1909   -0.6342    0.0000 H   0  0  0  0  0  0  0  0  0  0  0  0
    8.9771    0.2162    0.0000 H   0  0  0  0  0  0  0  0  0  0  0  0
    9.1655   -2.6647    0.0000 H   0  0  0  0  0  0  0  0  0  0  0  0
    9.3899    1.6752    0.0000 H   0  0  0  0  0  0  0  0  0  0  0  0
    9.0041    2.3740    0.0000 H   0  0  0  0  0  0  0  0  0  0  0  0
    6.0279   -1.5463    0.0000 H   0  0  0  0  0  0  0  0  0  0  0  0
    5.3058   -2.0437    0.0000 H   0  0  0  0  0  0  0  0  0  0  0  0
    5.8032   -2.7658    0.0000 H   0  0  0  0  0  0  0  0  0  0  0  0
    9.3287   -4.5148    0.0000 H   0  0  0  0  0  0  0  0  0  0  0  0
    8.9216   -3.8282    0.0000 H   0  0  0  0  0  0  0  0  0  0  0  0
    6.2412   -5.3757    0.0000 H   0  0  0  0  0  0  0  0  0  0  0  0
    6.6323   -6.0716    0.0000 H   0  0  0  0  0  0  0  0  0  0  0  0
    6.9481    2.9929    0.0000 H   0  0  0  0  0  0  0  0  0  0  0  0
    6.1021    3.2231    0.0000 H   0  0  0  0  0  0  0  0  0  0  0  0
    5.8719    2.3770    0.0000 H   0  0  0  0  0  0  0  0  0  0  0  0
    5.9091    2.4409    0.0000 H   0  0  0  0  0  0  0  0  0  0  0  0
    5.2867    1.8233    0.0000 H   0  0  0  0  0  0  0  0  0  0  0  0
    5.9043    1.2009    0.0000 H   0  0  0  0  0  0  0  0  0  0  0  0
    7.3848   -6.5138    0.0000 H   0  0  0  0  0  0  0  0  0  0  0  0
    8.1831   -6.5169    0.0000 H   0  0  0  0  0  0  0  0  0  0  0  0
    9.7278   -6.1146    0.0000 H   0  0  0  0  0  0  0  0  0  0  0  0
   10.3454   -5.4922    0.0000 H   0  0  0  0  0  0  0  0  0  0  0  0
    9.7230   -4.8746    0.0000 H   0  0  0  0  0  0  0  0  0  0  0  0
    8.6930   -6.6746    0.0000 H   0  0  0  0  0  0  0  0  0  0  0  0
    9.5408   -6.8983    0.0000 H   0  0  0  0  0  0  0  0  0  0  0  0
    9.7645   -6.0505    0.0000 H   0  0  0  0  0  0  0  0  0  0  0  0
    8.7266    3.2222    0.0000 H   0  0  0  0  0  0  0  0  0  0  0  0
    8.7525    5.4620    0.0000 H   0  0  0  0  0  0  0  0  0  0  0  0
    5.1350   -5.7863    0.0000 H   0  0  0  0  0  0  0  0  0  0  0  0
   10.1576    5.6358    0.0000 H   0  0  0  0  0  0  0  0  0  0  0  0
   10.4585    3.2022    0.0000 H   0  0  0  0  0  0  0  0  0  0  0  0
   11.0106    4.5059    0.0000 H   0  0  0  0  0  0  0  0  0  0  0  0
    5.1350   -8.0263    0.0000 H   0  0  0  0  0  0  0  0  0  0  0  0
    7.3447    5.0483    0.0000 H   0  0  0  0  0  0  0  0  0  0  0  0
    3.7320   -8.2163    0.0000 H   0  0  0  0  0  0  0  0  0  0  0  0
    3.4030   -5.7863    0.0000 H   0  0  0  0  0  0  0  0  0  0  0  0
    3.4030   -8.0263    0.0000 H   0  0  0  0  0  0  0  0  0  0  0  0
    9.0953    6.6482    0.0000 H   0  0  0  0  0  0  0  0  0  0  0  0
    6.5380   -7.5963    0.0000 H   0  0  0  0  0  0  0  0  0  0  0  0
    1.9264   -5.7987    0.0000 H   0  0  0  0  0  0  0  0  0  0  0  0
    2.3249   -6.4890    0.0000 H   0  0  0  0  0  0  0  0  0  0  0  0
   11.9097    6.0241    0.0000 H   0  0  0  0  0  0  0  0  0  0  0  0
    3.7320   -9.2163    0.0000 H   0  0  0  0  0  0  0  0  0  0  0  0
    2.0000   -7.5963    0.0000 H   0  0  0  0  0  0  0  0  0  0  0  0
   12.6198    7.3236    0.0000 H   0  0  0  0  0  0  0  0  0  0  0  0
   12.7310    3.4859    0.0000 H   0  0  0  0  0  0  0  0  0  0  0  0
   11.6033    8.4005    0.0000 H   0  0  0  0  0  0  0  0  0  0  0  0
   10.2650    7.7666    0.0000 H   0  0  0  0  0  0  0  0  0  0  0  0
    2.0000   -4.5963    0.0000 H   0  0  0  0  0  0  0  0  0  0  0  0
   13.5893    6.9798    0.0000 H   0  0  0  0  0  0  0  0  0  0  0  0
   10.8604    8.9376    0.0000 H   0  0  0  0  0  0  0  0  0  0  0  0
   10.1360    9.2701    0.0000 H   0  0  0  0  0  0  0  0  0  0  0  0
   12.2298    9.2163    0.0000 H   0  0  0  0  0  0  0  0  0  0  0  0
    8.9458    9.0850    0.0000 H   0  0  0  0  0  0  0  0  0  0  0  0
 34  1  1  1  0  0  0
 49  1  1  1  0  0  0
  2 46  1  0  0  0  0
 51  2  1  1  0  0  0
  3 46  2  0  0  0  0
  4 49  1  0  0  0  0
  4 53  1  0  0  0  0
  5 51  1  0  0  0  0
  5 57  1  0  0  0  0
 50  6  1  6  0  0  0
  6119  1  0  0  0  0
 52  7  1  1  0  0  0
  7123  1  0  0  0  0
 54  8  1  6  0  0  0
 61  8  1  6  0  0  0
 55  9  1  6  0  0  0
  9124  1  0  0  0  0
 56 10  1  1  0  0  0
 10128  1  0  0  0  0
 58 11  1  6  0  0  0
 11129  1  0  0  0  0
 12 59  1  0  0  0  0
 12131  1  0  0  0  0
 13 59  2  0  0  0  0
 14 61  1  0  0  0  0
 14 64  1  0  0  0  0
 15 60  1  0  0  0  0
 15134  1  0  0  0  0
 62 16  1  1  0  0  0
 16135  1  0  0  0  0
 63 17  1  6  0  0  0
 17138  1  0  0  0  0
 18 65  1  0  0  0  0
 18139  1  0  0  0  0
 19 20  1  0  0  0  0
 19 22  1  0  0  0  0
 19 24  1  0  0  0  0
 19 33  1  1  0  0  0
 20 21  1  0  0  0  0
 20 29  1  0  0  0  0
 20 66  1  6  0  0  0
 21 23  1  0  0  0  0
 21 30  1  0  0  0  0
 21 36  1  1  0  0  0
 22 27  1  0  0  0  0
 22 31  1  0  0  0  0
 22 39  1  6  0  0  0
 23 25  1  0  0  0  0
 23 26  1  0  0  0  0
 23 67  1  6  0  0  0
 24 26  1  0  0  0  0
 24 68  1  0  0  0  0
 24 69  1  0  0  0  0
 25 34  1  0  0  0  0
 25 43  1  0  0  0  0
 25 44  1  0  0  0  0
 26 70  1  0  0  0  0
 26 71  1  0  0  0  0
 27 28  1  0  0  0  0
 27 37  2  0  0  0  0
 28 32  1  0  0  0  0
 28 40  1  0  0  0  0
 28 72  1  1  0  0  0
 29 37  1  0  0  0  0
 29 73  1  0  0  0  0
 29 74  1  0  0  0  0
 30 38  1  0  0  0  0
 30 75  1  0  0  0  0
 30 76  1  0  0  0  0
 31 35  1  0  0  0  0
 31 77  1  0  0  0  0
 31 78  1  0  0  0  0
 32 35  1  0  0  0  0
 32 41  1  0  0  0  0
 32 46  1  1  0  0  0
 33 79  1  0  0  0  0
 33 80  1  0  0  0  0
 33 81  1  0  0  0  0
 34 38  1  0  0  0  0
 34 82  1  0  0  0  0
 35 83  1  0  0  0  0
 35 84  1  0  0  0  0
 36 85  1  0  0  0  0
 36 86  1  0  0  0  0
 36 87  1  0  0  0  0
 37 88  1  0  0  0  0
 38 89  1  0  0  0  0
 38 90  1  0  0  0  0
 39 91  1  0  0  0  0
 39 92  1  0  0  0  0
 39 93  1  0  0  0  0
 40 42  1  0  0  0  0
 40 94  1  0  0  0  0
 40 95  1  0  0  0  0
 41 45  1  0  0  0  0
 41 96  1  0  0  0  0
 41 97  1  0  0  0  0
 42 45  1  0  0  0  0
 42 47  1  0  0  0  0
 42 48  1  0  0  0  0
 43 98  1  0  0  0  0
 43 99  1  0  0  0  0
 43100  1  0  0  0  0
 44101  1  0  0  0  0
 44102  1  0  0  0  0
 44103  1  0  0  0  0
 45104  1  0  0  0  0
 45105  1  0  0  0  0
 47106  1  0  0  0  0
 47107  1  0  0  0  0
 47108  1  0  0  0  0
 48109  1  0  0  0  0
 48110  1  0  0  0  0
 48111  1  0  0  0  0
 49 50  1  0  0  0  0
 49112  1  0  0  0  0
 50 52  1  0  0  0  0
 50113  1  0  0  0  0
 51 55  1  0  0  0  0
 51114  1  0  0  0  0
 52 54  1  0  0  0  0
 52115  1  0  0  0  0
 53 54  1  0  0  0  0
 53 59  1  1  0  0  0
 53116  1  0  0  0  0
 54117  1  0  0  0  0
 55 56  1  0  0  0  0
 55118  1  0  0  0  0
 56 58  1  0  0  0  0
 56120  1  0  0  0  0
 57 58  1  0  0  0  0
 57 60  1  1  0  0  0
 57121  1  0  0  0  0
 58122  1  0  0  0  0
 60125  1  0  0  0  0
 60126  1  0  0  0  0
 61 62  1  0  0  0  0
 61127  1  0  0  0  0
 62 63  1  0  0  0  0
 62130  1  0  0  0  0
 63 64  1  0  0  0  0
 63132  1  0  0  0  0
 64 65  1  1  0  0  0
 64133  1  0  0  0  0
 65136  1  0  0  0  0
 65137  1  0  0  0  0
M  END
> <PUBCHEM_COMPOUND_CID>
10079497

> <PUBCHEM_COMPOUND_CANONICALIZED>
1

> <PUBCHEM_CACTVS_COMPLEXITY>
1830

> <PUBCHEM_CACTVS_HBOND_ACCEPTOR>
18

> <PUBCHEM_CACTVS_HBOND_DONOR>
10

> <PUBCHEM_CACTVS_ROTATABLE_BOND>
10

> <PUBCHEM_CACTVS_SUBSKEYS>
AAADcfB8PgAAAAAAAAAAAAAAAAAAASAAAAA0aMGCAAAAAADAAAAAGgAACAAADxSwgAMCCAAABgCIAiDSCAIAAAAgAAAACAFAAAgREBYAAQQiQAAFoAAPAAPK7PzPgAAAAAAAAADAAAYAADAAAAAAAAAAAA==

> <PUBCHEM_IUPAC_OPENEYE_NAME>
(2S,3S,4R,5R,6R)-6-[[(3S,4aR,6aR,6bS,8aS,12aS,14aR,14bR)-4,4,6a,6b,11,11,14b-heptamethyl-8a-[(2S,3R,4S,5S,6R)-3,4,5-trihydroxy-6-(hydroxymethyl)tetrahydropyran-2-yl]oxycarbonyl-1,2,3,4a,5,6,7,8,9,10,12,12a,14,14a-tetradecahydropicen-3-yl]oxy]-3-[(2S,3R,4R,5S)-3,4-dihydroxy-5-(hydroxymethyl)tetrahydrofuran-2-yl]oxy-4,5-dihydroxy-tetrahydropyran-2-carboxylic acid

> <PUBCHEM_IUPAC_CAS_NAME>
(2S,3S,4R,5R,6R)-6-[[(3S,4aR,6aR,6bS,8aS,12aS,14aR,14bR)-4,4,6a,6b,11,11,14b-heptamethyl-8a-[oxo-[[(2S,3R,4S,5S,6R)-3,4,5-trihydroxy-6-(hydroxymethyl)-2-oxanyl]oxy]methyl]-1,2,3,4a,5,6,7,8,9,10,12,12a,14,14a-tetradecahydropicen-3-yl]oxy]-3-[[(2S,3R,4R,5S)-3,4-dihydroxy-5-(hydroxymethyl)-2-oxolanyl]oxy]-4,5-dihydroxy-2-oxanecarboxylic acid

> <PUBCHEM_IUPAC_NAME_MARKUP>
(2<I>S</I>,3<I>S</I>,4<I>R</I>,5<I>R</I>,6<I>R</I>)-6-[[(3<I>S</I>,4<I>a</I><I>R</I>,6<I>a</I><I>R</I>,6<I>b</I><I>S</I>,8<I>a</I><I>S</I>,12<I>a</I><I>S</I>,14<I>a</I><I>R</I>,14<I>b</I><I>R</I>)-4,4,6<I>a</I>,6<I>b</I>,11,11,14<I>b</I>-heptamethyl-8<I>a</I>-[(2<I>S</I>,3<I>R</I>,4<I>S</I>,5<I>S</I>,6<I>R</I>)-3,4,5-trihydroxy-6-(hydroxymethyl)oxan-2-yl]oxycarbonyl-1,2,3,4<I>a</I>,5,6,7,8,9,10,12,12<I>a</I>,14,14<I>a</I>-tetradecahydropicen-3-yl]oxy]-3-[(2<I>S</I>,3<I>R</I>,4<I>R</I>,5<I>S</I>)-3,4-dihydroxy-5-(hydroxymethyl)oxolan-2-yl]oxy-4,5-dihydroxyoxane-2-carboxylic acid

> <PUBCHEM_IUPAC_NAME>
(2S,3S,4R,5R,6R)-6-[[(3S,4aR,6aR,6bS,8aS,12aS,14aR,14bR)-4,4,6a,6b,11,11,14b-heptamethyl-8a-[(2S,3R,4S,5S,6R)-3,4,5-trihydroxy-6-(hydroxymethyl)oxan-2-yl]oxycarbonyl-1,2,3,4a,5,6,7,8,9,10,12,12a,14,14a-tetradecahydropicen-3-yl]oxy]-3-[(2S,3R,4R,5S)-3,4-dihydroxy-5-(hydroxymethyl)oxolan-2-yl]oxy-4,5-dihydroxyoxane-2-carboxylic acid

> <PUBCHEM_IUPAC_SYSTEMATIC_NAME>
(2S,3S,4R,5R,6R)-6-[[(3S,4aR,6aR,6bS,8aS,12aS,14aR,14bR)-8a-[(2S,3R,4S,5S,6R)-6-(hydroxymethyl)-3,4,5-tris(oxidanyl)oxan-2-yl]oxycarbonyl-4,4,6a,6b,11,11,14b-heptamethyl-1,2,3,4a,5,6,7,8,9,10,12,12a,14,14a-tetradecahydropicen-3-yl]oxy]-3-[(2S,3R,4R,5S)-5-(hydroxymethyl)-3,4-bis(oxidanyl)oxolan-2-yl]oxy-4,5-bis(oxidanyl)oxane-2-carboxylic acid

> <PUBCHEM_IUPAC_TRADITIONAL_NAME>
(2S,3S,4R,5R,6R)-6-[[(3S,4aR,6aR,6bS,8aS,12aS,14aR,14bR)-4,4,6a,6b,11,11,14b-heptamethyl-8a-[(2S,3R,4S,5S,6R)-3,4,5-trihydroxy-6-methylol-tetrahydropyran-2-yl]oxycarbonyl-1,2,3,4a,5,6,7,8,9,10,12,12a,14,14a-tetradecahydropicen-3-yl]oxy]-3-[(2S,3R,4R,5S)-3,4-dihydroxy-5-methylol-tetrahydrofuran-2-yl]oxy-4,5-dihydroxy-tetrahydropyran-2-carboxylic acid

> <PUBCHEM_IUPAC_INCHI>
InChI=1S/C47H74O18/c1-42(2)14-16-47(41(59)65-39-33(55)30(52)28(50)23(19-48)61-39)17-15-45(6)21(22(47)18-42)8-9-26-44(5)12-11-27(43(3,4)25(44)10-13-46(26,45)7)62-40-34(56)31(53)35(36(64-40)37(57)58)63-38-32(54)29(51)24(20-49)60-38/h8,22-36,38-40,48-56H,9-20H2,1-7H3,(H,57,58)/t22-,23+,24-,25-,26+,27-,28+,29-,30-,31+,32+,33+,34+,35-,36-,38-,39-,40+,44-,45+,46+,47-/m0/s1

> <PUBCHEM_IUPAC_INCHIKEY>
KQSFNXMDCOFFGW-GNDIVNLPSA-N

> <PUBCHEM_XLOGP3_AA>
2.8

> <PUBCHEM_EXACT_MASS>
926.487516

> <PUBCHEM_MOLECULAR_FORMULA>
C47H74O18

> <PUBCHEM_MOLECULAR_WEIGHT>
927.1

> <PUBCHEM_OPENEYE_CAN_SMILES>
CC1(CCC2(CCC3(C(=CCC4C3(CCC5C4(CCC(C5(C)C)OC6C(C(C(C(O6)C(=O)O)OC7C(C(C(O7)CO)O)O)O)O)C)C)C2C1)C)C(=O)OC8C(C(C(C(O8)CO)O)O)O)C

> <PUBCHEM_OPENEYE_ISO_SMILES>
C[C@]12CC[C@@H](C([C@@H]1CC[C@@]3([C@@H]2CC=C4[C@]3(CC[C@@]5([C@H]4CC(CC5)(C)C)C(=O)O[C@H]6[C@@H]([C@H]([C@@H]([C@H](O6)CO)O)O)O)C)C)(C)C)O[C@H]7[C@@H]([C@H]([C@@H]([C@H](O7)C(=O)O)O[C@H]8[C@@H]([C@H]([C@@H](O8)CO)O)O)O)O

> <PUBCHEM_CACTVS_TPSA>
292

> <PUBCHEM_MONOISOTOPIC_WEIGHT>
926.487516

> <PUBCHEM_TOTAL_CHARGE>
0

> <PUBCHEM_HEAVY_ATOM_COUNT>
65

> <PUBCHEM_ATOM_DEF_STEREO_COUNT>
22

> <PUBCHEM_ATOM_UDEF_STEREO_COUNT>
0

> <PUBCHEM_BOND_DEF_STEREO_COUNT>
0

> <PUBCHEM_BOND_UDEF_STEREO_COUNT>
0

> <PUBCHEM_ISOTOPIC_ATOM_COUNT>
0

> <PUBCHEM_COMPONENT_COUNT>
1

> <PUBCHEM_CACTVS_TAUTO_COUNT>
-1

> <PUBCHEM_COORDINATE_TYPE>
1
5
255

> <PUBCHEM_BONDANNOTATIONS>
34  1  5
49  1  5
56  10  5
58  11  6
62  16  5
63  17  6
19  33  5
51  2  5
20  66  6
21  36  5
22  39  6
23  67  6
28  72  5
32  46  5
53  59  5
57  60  5
50  6  6
64  65  5
52  7  5
54  8  6
61  8  6
55  9  6

$$$$
