441923
  -OEChem-09132016172D

128133  0     1  0  0  0  0  0999 V2000
    7.1994    3.9081    0.0000 O   0  0  0  0  0  0  0  0  0  0  0  0
    8.0949   -1.6584    0.0000 O   0  0  0  0  0  0  0  0  0  0  0  0
    6.0010   -3.0853    0.0000 O   0  0  0  0  0  0  0  0  0  0  0  0
   10.9838    4.0751    0.0000 O   0  0  0  0  0  0  0  0  0  0  0  0
    5.5552    3.3636    0.0000 O   0  0  0  0  0  0  0  0  0  0  0  0
    4.2690   -3.0853    0.0000 O   0  0  0  0  0  0  0  0  0  0  0  0
    6.5708    5.8067    0.0000 O   0  0  0  0  0  0  0  0  0  0  0  0
    4.6122    6.2116    0.0000 O   0  0  0  0  0  0  0  0  0  0  0  0
    6.0010   -5.0853    0.0000 O   0  0  0  0  0  0  0  0  0  0  0  0
    3.2823    4.7179    0.0000 O   0  0  0  0  0  0  0  0  0  0  0  0
    4.2690   -6.0853    0.0000 O   0  0  0  0  0  0  0  0  0  0  0  0
    2.5369   -5.0853    0.0000 O   0  0  0  0  0  0  0  0  0  0  0  0
    2.9316    3.0217    0.0000 O   0  0  0  0  0  0  0  0  0  0  0  0
    2.5369   -2.0853    0.0000 O   0  0  0  0  0  0  0  0  0  0  0  0
    7.1630    1.1932    0.0000 C   0  0  1  0  0  0  0  0  0  0  0  0
    6.4951    0.4488    0.0000 C   0  0  1  0  0  0  0  0  0  0  0  0
    8.1415    0.9869    0.0000 C   0  0  1  0  0  0  0  0  0  0  0  0
    8.8490    1.7514    0.0000 C   0  0  2  0  0  0  0  0  0  0  0  0
    6.8058   -0.5017    0.0000 C   0  0  1  0  0  0  0  0  0  0  0  0
    8.5330    2.7440    0.0000 C   0  0  1  0  0  0  0  0  0  0  0  0
    6.8241    2.1781    0.0000 C   0  0  0  0  0  0  0  0  0  0  0  0
    8.4521    0.0364    0.0000 C   0  0  0  0  0  0  0  0  0  0  0  0
    6.0010   -1.0853    0.0000 C   0  0  2  0  0  0  0  0  0  0  0  0
    7.7843   -0.7079    0.0000 C   0  0  1  0  0  0  0  0  0  0  0  0
    5.5010    0.4445    0.0000 C   0  0  0  0  0  0  0  0  0  0  0  0
    7.5138    2.9588    0.0000 C   0  0  2  0  0  0  0  0  0  0  0  0
    9.2514    3.5571    0.0000 C   0  0  0  0  0  0  0  0  0  0  0  0
    5.1963   -0.5017    0.0000 C   0  0  0  0  0  0  0  0  0  0  0  0
    9.9052    1.5032    0.0000 C   0  0  0  0  0  0  0  0  0  0  0  0
    6.3140    1.7216    0.0000 C   0  0  0  0  0  0  0  0  0  0  0  0
    5.8781    1.2358    0.0000 C   0  0  0  0  0  0  0  0  0  0  0  0
    9.1523    0.7985    0.0000 C   0  0  0  0  0  0  0  0  0  0  0  0
   10.3131    3.3333    0.0000 C   0  0  2  0  0  0  0  0  0  0  0  0
    6.0010   -2.0853    0.0000 C   0  0  2  0  0  0  0  0  0  0  0  0
   10.6422    2.2995    0.0000 C   0  0  0  0  0  0  0  0  0  0  0  0
    9.4538    4.5364    0.0000 C   0  0  0  0  0  0  0  0  0  0  0  0
    8.5045    4.2220    0.0000 C   0  0  0  0  0  0  0  0  0  0  0  0
    7.0010   -2.0853    0.0000 C   0  0  0  0  0  0  0  0  0  0  0  0
    5.0010   -2.0853    0.0000 C   0  0  0  0  0  0  0  0  0  0  0  0
    6.2202    4.1105    0.0000 C   0  0  2  0  0  0  0  0  0  0  0  0
    7.5010   -2.9513    0.0000 C   0  0  0  0  0  0  0  0  0  0  0  0
    5.1350   -3.5853    0.0000 C   0  0  2  0  0  0  0  0  0  0  0  0
    5.9058    5.0598    0.0000 C   0  0  1  0  0  0  0  0  0  0  0  0
    4.9265    5.2623    0.0000 C   0  0  2  0  0  0  0  0  0  0  0  0
    5.1350   -4.5853    0.0000 C   0  0  1  0  0  0  0  0  0  0  0  0
    4.5759    3.5661    0.0000 C   0  0  1  0  0  0  0  0  0  0  0  0
    8.5010   -2.9513    0.0000 C   0  0  0  0  0  0  0  0  0  0  0  0
    4.2616    4.5154    0.0000 C   0  0  1  0  0  0  0  0  0  0  0  0
    4.2690   -5.0853    0.0000 C   0  0  2  0  0  0  0  0  0  0  0  0
    3.4030   -3.5853    0.0000 C   0  0  1  0  0  0  0  0  0  0  0  0
    3.4030   -4.5853    0.0000 C   0  0  1  0  0  0  0  0  0  0  0  0
    3.9109    2.8192    0.0000 C   0  0  0  0  0  0  0  0  0  0  0  0
    9.0010   -3.8173    0.0000 C   0  0  0  0  0  0  0  0  0  0  0  0
    2.5369   -3.0853    0.0000 C   0  0  0  0  0  0  0  0  0  0  0  0
   10.0010   -3.8173    0.0000 C   0  0  0  0  0  0  0  0  0  0  0  0
    8.5010   -4.6834    0.0000 C   0  0  0  0  0  0  0  0  0  0  0  0
    8.9718    0.8052    0.0000 H   0  0  0  0  0  0  0  0  0  0  0  0
    6.9828   -1.3330    0.0000 H   0  0  0  0  0  0  0  0  0  0  0  0
    8.2658    3.5509    0.0000 H   0  0  0  0  0  0  0  0  0  0  0  0
    6.4366    2.6621    0.0000 H   0  0  0  0  0  0  0  0  0  0  0  0
    6.2810    1.8791    0.0000 H   0  0  0  0  0  0  0  0  0  0  0  0
    8.8347   -0.4515    0.0000 H   0  0  0  0  0  0  0  0  0  0  0  0
    8.9990    0.3284    0.0000 H   0  0  0  0  0  0  0  0  0  0  0  0
    5.2438   -1.4715    0.0000 H   0  0  0  0  0  0  0  0  0  0  0  0
    7.3702   -1.1694    0.0000 H   0  0  0  0  0  0  0  0  0  0  0  0
    5.5635    1.0614    0.0000 H   0  0  0  0  0  0  0  0  0  0  0  0
    4.8942    0.5715    0.0000 H   0  0  0  0  0  0  0  0  0  0  0  0
    7.9270    3.4210    0.0000 H   0  0  0  0  0  0  0  0  0  0  0  0
    4.6294   -0.2506    0.0000 H   0  0  0  0  0  0  0  0  0  0  0  0
    4.8871   -1.0391    0.0000 H   0  0  0  0  0  0  0  0  0  0  0  0
    9.6622    0.9328    0.0000 H   0  0  0  0  0  0  0  0  0  0  0  0
   10.4256    1.1661    0.0000 H   0  0  0  0  0  0  0  0  0  0  0  0
    6.6416    2.2480    0.0000 H   0  0  0  0  0  0  0  0  0  0  0  0
    5.7876    2.0492    0.0000 H   0  0  0  0  0  0  0  0  0  0  0  0
    5.9864    1.1952    0.0000 H   0  0  0  0  0  0  0  0  0  0  0  0
    6.3660    1.6184    0.0000 H   0  0  0  0  0  0  0  0  0  0  0  0
    5.4955    1.7237    0.0000 H   0  0  0  0  0  0  0  0  0  0  0  0
    5.3902    0.8532    0.0000 H   0  0  0  0  0  0  0  0  0  0  0  0
    8.5615    0.6105    0.0000 H   0  0  0  0  0  0  0  0  0  0  0  0
    9.3404    0.2077    0.0000 H   0  0  0  0  0  0  0  0  0  0  0  0
    9.7431    0.9866    0.0000 H   0  0  0  0  0  0  0  0  0  0  0  0
   10.9190    3.2020    0.0000 H   0  0  0  0  0  0  0  0  0  0  0  0
   11.0184    1.8067    0.0000 H   0  0  0  0  0  0  0  0  0  0  0  0
   11.1921    2.5858    0.0000 H   0  0  0  0  0  0  0  0  0  0  0  0
   10.0610    4.4109    0.0000 H   0  0  0  0  0  0  0  0  0  0  0  0
    9.5793    5.1435    0.0000 H   0  0  0  0  0  0  0  0  0  0  0  0
    8.8467    4.6619    0.0000 H   0  0  0  0  0  0  0  0  0  0  0  0
    8.9168    4.6851    0.0000 H   0  0  0  0  0  0  0  0  0  0  0  0
    8.0414    4.6343    0.0000 H   0  0  0  0  0  0  0  0  0  0  0  0
    8.0922    3.7590    0.0000 H   0  0  0  0  0  0  0  0  0  0  0  0
    8.7016   -1.7863    0.0000 H   0  0  0  0  0  0  0  0  0  0  0  0
    7.5836   -1.8732    0.0000 H   0  0  0  0  0  0  0  0  0  0  0  0
    6.8934   -1.4747    0.0000 H   0  0  0  0  0  0  0  0  0  0  0  0
    5.0010   -1.4653    0.0000 H   0  0  0  0  0  0  0  0  0  0  0  0
    4.3810   -2.0853    0.0000 H   0  0  0  0  0  0  0  0  0  0  0  0
    5.0010   -2.7053    0.0000 H   0  0  0  0  0  0  0  0  0  0  0  0
    6.6324    4.5736    0.0000 H   0  0  0  0  0  0  0  0  0  0  0  0
   11.5899    3.9449    0.0000 H   0  0  0  0  0  0  0  0  0  0  0  0
    6.9184   -3.1634    0.0000 H   0  0  0  0  0  0  0  0  0  0  0  0
    7.6087   -3.5619    0.0000 H   0  0  0  0  0  0  0  0  0  0  0  0
    5.1350   -2.9653    0.0000 H   0  0  0  0  0  0  0  0  0  0  0  0
    5.7110    5.6484    0.0000 H   0  0  0  0  0  0  0  0  0  0  0  0
    5.3388    5.7253    0.0000 H   0  0  0  0  0  0  0  0  0  0  0  0
    5.1350   -5.2053    0.0000 H   0  0  0  0  0  0  0  0  0  0  0  0
    4.7708    2.9775    0.0000 H   0  0  0  0  0  0  0  0  0  0  0  0
    8.8110   -2.4144    0.0000 H   0  0  0  0  0  0  0  0  0  0  0  0
    4.0667    5.1040    0.0000 H   0  0  0  0  0  0  0  0  0  0  0  0
    3.7320   -5.3953    0.0000 H   0  0  0  0  0  0  0  0  0  0  0  0
    3.4030   -2.9653    0.0000 H   0  0  0  0  0  0  0  0  0  0  0  0
    6.3759    6.3953    0.0000 H   0  0  0  0  0  0  0  0  0  0  0  0
    3.4030   -5.2053    0.0000 H   0  0  0  0  0  0  0  0  0  0  0  0
    3.6819    2.2431    0.0000 H   0  0  0  0  0  0  0  0  0  0  0  0
    4.4385    2.4936    0.0000 H   0  0  0  0  0  0  0  0  0  0  0  0
    4.0051    6.3371    0.0000 H   0  0  0  0  0  0  0  0  0  0  0  0
    6.0010   -5.7053    0.0000 H   0  0  0  0  0  0  0  0  0  0  0  0
    3.0874    5.3064    0.0000 H   0  0  0  0  0  0  0  0  0  0  0  0
    1.9264   -2.9776    0.0000 H   0  0  0  0  0  0  0  0  0  0  0  0
    2.3249   -3.6679    0.0000 H   0  0  0  0  0  0  0  0  0  0  0  0
    3.7320   -6.3953    0.0000 H   0  0  0  0  0  0  0  0  0  0  0  0
   10.0010   -4.4373    0.0000 H   0  0  0  0  0  0  0  0  0  0  0  0
   10.6210   -3.8173    0.0000 H   0  0  0  0  0  0  0  0  0  0  0  0
   10.0010   -3.1973    0.0000 H   0  0  0  0  0  0  0  0  0  0  0  0
    7.9641   -4.3734    0.0000 H   0  0  0  0  0  0  0  0  0  0  0  0
    8.1910   -5.2203    0.0000 H   0  0  0  0  0  0  0  0  0  0  0  0
    9.0380   -4.9934    0.0000 H   0  0  0  0  0  0  0  0  0  0  0  0
    2.0000   -4.7753    0.0000 H   0  0  0  0  0  0  0  0  0  0  0  0
    2.5194    2.5586    0.0000 H   0  0  0  0  0  0  0  0  0  0  0  0
    2.0000   -1.7753    0.0000 H   0  0  0  0  0  0  0  0  0  0  0  0
 26  1  1  6  0  0  0
 40  1  1  6  0  0  0
 24  2  1  1  0  0  0
  2 91  1  0  0  0  0
 34  3  1  6  0  0  0
 42  3  1  1  0  0  0
 33  4  1  1  0  0  0
  4 98  1  0  0  0  0
  5 40  1  0  0  0  0
  5 46  1  0  0  0  0
  6 42  1  0  0  0  0
  6 50  1  0  0  0  0
 43  7  1  1  0  0  0
  7110  1  0  0  0  0
 44  8  1  6  0  0  0
  8114  1  0  0  0  0
 45  9  1  6  0  0  0
  9115  1  0  0  0  0
 48 10  1  1  0  0  0
 10116  1  0  0  0  0
 49 11  1  1  0  0  0
 11119  1  0  0  0  0
 51 12  1  6  0  0  0
 12126  1  0  0  0  0
 13 52  1  0  0  0  0
 13127  1  0  0  0  0
 14 54  1  0  0  0  0
 14128  1  0  0  0  0
 15 16  1  0  0  0  0
 15 17  1  0  0  0  0
 15 21  1  0  0  0  0
 15 30  1  1  0  0  0
 16 19  1  0  0  0  0
 16 25  1  0  0  0  0
 16 31  1  6  0  0  0
 17 18  1  0  0  0  0
 17 22  1  0  0  0  0
 17 57  1  6  0  0  0
 18 20  1  0  0  0  0
 18 29  1  0  0  0  0
 18 32  1  1  0  0  0
 19 23  1  0  0  0  0
 19 24  1  0  0  0  0
 19 58  1  1  0  0  0
 20 26  1  0  0  0  0
 20 27  1  0  0  0  0
 20 59  1  6  0  0  0
 21 26  1  0  0  0  0
 21 60  1  0  0  0  0
 21 61  1  0  0  0  0
 22 24  1  0  0  0  0
 22 62  1  0  0  0  0
 22 63  1  0  0  0  0
 23 28  1  0  0  0  0
 23 34  1  0  0  0  0
 23 64  1  6  0  0  0
 24 65  1  0  0  0  0
 25 28  1  0  0  0  0
 25 66  1  0  0  0  0
 25 67  1  0  0  0  0
 26 68  1  0  0  0  0
 27 33  1  0  0  0  0
 27 36  1  0  0  0  0
 27 37  1  0  0  0  0
 28 69  1  0  0  0  0
 28 70  1  0  0  0  0
 29 35  1  0  0  0  0
 29 71  1  0  0  0  0
 29 72  1  0  0  0  0
 30 73  1  0  0  0  0
 30 74  1  0  0  0  0
 30 75  1  0  0  0  0
 31 76  1  0  0  0  0
 31 77  1  0  0  0  0
 31 78  1  0  0  0  0
 32 79  1  0  0  0  0
 32 80  1  0  0  0  0
 32 81  1  0  0  0  0
 33 35  1  0  0  0  0
 33 82  1  0  0  0  0
 34 38  1  0  0  0  0
 34 39  1  0  0  0  0
 35 83  1  0  0  0  0
 35 84  1  0  0  0  0
 36 85  1  0  0  0  0
 36 86  1  0  0  0  0
 36 87  1  0  0  0  0
 37 88  1  0  0  0  0
 37 89  1  0  0  0  0
 37 90  1  0  0  0  0
 38 41  1  0  0  0  0
 38 92  1  0  0  0  0
 38 93  1  0  0  0  0
 39 94  1  0  0  0  0
 39 95  1  0  0  0  0
 39 96  1  0  0  0  0
 40 43  1  0  0  0  0
 40 97  1  0  0  0  0
 41 47  1  0  0  0  0
 41 99  1  0  0  0  0
 41100  1  0  0  0  0
 42 45  1  0  0  0  0
 42101  1  0  0  0  0
 43 44  1  0  0  0  0
 43102  1  0  0  0  0
 44 48  1  0  0  0  0
 44103  1  0  0  0  0
 45 49  1  0  0  0  0
 45104  1  0  0  0  0
 46 48  1  0  0  0  0
 46 52  1  6  0  0  0
 46105  1  0  0  0  0
 47 53  2  0  0  0  0
 47106  1  0  0  0  0
 48107  1  0  0  0  0
 49 51  1  0  0  0  0
 49108  1  0  0  0  0
 50 51  1  0  0  0  0
 50 54  1  1  0  0  0
 50109  1  0  0  0  0
 51111  1  0  0  0  0
 52112  1  0  0  0  0
 52113  1  0  0  0  0
 53 55  1  0  0  0  0
 53 56  1  0  0  0  0
 54117  1  0  0  0  0
 54118  1  0  0  0  0
 55120  1  0  0  0  0
 55121  1  0  0  0  0
 55122  1  0  0  0  0
 56123  1  0  0  0  0
 56124  1  0  0  0  0
 56125  1  0  0  0  0
M  END
> <PUBCHEM_COMPOUND_CID>
441923

> <PUBCHEM_COMPOUND_CANONICALIZED>
1

> <PUBCHEM_CACTVS_COMPLEXITY>
1410

> <PUBCHEM_CACTVS_HBOND_ACCEPTOR>
14

> <PUBCHEM_CACTVS_HBOND_DONOR>
10

> <PUBCHEM_CACTVS_ROTATABLE_BOND>
10

> <PUBCHEM_CACTVS_SUBSKEYS>
AAADcfB8PAAAAAAAAAAAAAAAAAAAAYAAAAA0aMECAAAAAGDAAAAAGgAACAAAD1SwgAMCCAAABgCAAiBCAAAAAAAgAAAACAAAAAgREAIAAQAiQAAFgAAPAAPA4PwPgAAAAAAAAADAAAYAADAAAQAACAAAAA==

> <PUBCHEM_IUPAC_OPENEYE_NAME>
(2R,3R,4S,5S,6R)-2-[[(3S,5R,6S,8R,9R,10R,12R,13R,14R,17S)-17-[(1S)-1,5-dimethyl-1-[(2S,3R,4S,5S,6R)-3,4,5-trihydroxy-6-(hydroxymethyl)tetrahydropyran-2-yl]oxy-hex-4-enyl]-3,12-dihydroxy-4,4,8,10,14-pentamethyl-2,3,5,6,7,9,11,12,13,15,16,17-dodecahydro-1H-cyclopenta[a]phenanthren-6-yl]oxy]-6-(hydroxymethyl)tetrahydropyran-3,4,5-triol

> <PUBCHEM_IUPAC_CAS_NAME>
(2R,3R,4S,5S,6R)-2-[[(3S,5R,6S,8R,9R,10R,12R,13R,14R,17S)-3,12-dihydroxy-4,4,8,10,14-pentamethyl-17-[(2S)-6-methyl-2-[[(2S,3R,4S,5S,6R)-3,4,5-trihydroxy-6-(hydroxymethyl)-2-oxanyl]oxy]hept-5-en-2-yl]-2,3,5,6,7,9,11,12,13,15,16,17-dodecahydro-1H-cyclopenta[a]phenanthren-6-yl]oxy]-6-(hydroxymethyl)oxane-3,4,5-triol

> <PUBCHEM_IUPAC_NAME_MARKUP>
(2<I>R</I>,3<I>R</I>,4<I>S</I>,5<I>S</I>,6<I>R</I>)-2-[[(3<I>S</I>,5<I>R</I>,6<I>S</I>,8<I>R</I>,9<I>R</I>,10<I>R</I>,12<I>R</I>,13<I>R</I>,14<I>R</I>,17<I>S</I>)-3,12-dihydroxy-4,4,8,10,14-pentamethyl-17-[(2<I>S</I>)-6-methyl-2-[(2<I>S</I>,3<I>R</I>,4<I>S</I>,5<I>S</I>,6<I>R</I>)-3,4,5-trihydroxy-6-(hydroxymethyl)oxan-2-yl]oxyhept-5-en-2-yl]-2,3,5,6,7,9,11,12,13,15,16,17-dodecahydro-1<I>H</I>-cyclopenta[a]phenanthren-6-yl]oxy]-6-(hydroxymethyl)oxane-3,4,5-triol

> <PUBCHEM_IUPAC_NAME>
(2R,3R,4S,5S,6R)-2-[[(3S,5R,6S,8R,9R,10R,12R,13R,14R,17S)-3,12-dihydroxy-4,4,8,10,14-pentamethyl-17-[(2S)-6-methyl-2-[(2S,3R,4S,5S,6R)-3,4,5-trihydroxy-6-(hydroxymethyl)oxan-2-yl]oxyhept-5-en-2-yl]-2,3,5,6,7,9,11,12,13,15,16,17-dodecahydro-1H-cyclopenta[a]phenanthren-6-yl]oxy]-6-(hydroxymethyl)oxane-3,4,5-triol

> <PUBCHEM_IUPAC_SYSTEMATIC_NAME>
(2R,3S,4S,5R,6R)-2-(hydroxymethyl)-6-[[(3S,5R,6S,8R,9R,10R,12R,13R,14R,17S)-17-[(2S)-2-[(2S,3R,4S,5S,6R)-6-(hydroxymethyl)-3,4,5-tris(oxidanyl)oxan-2-yl]oxy-6-methyl-hept-5-en-2-yl]-4,4,8,10,14-pentamethyl-3,12-bis(oxidanyl)-2,3,5,6,7,9,11,12,13,15,16,17-dodecahydro-1H-cyclopenta[a]phenanthren-6-yl]oxy]oxane-3,4,5-triol

> <PUBCHEM_IUPAC_TRADITIONAL_NAME>
(2R,3R,4S,5S,6R)-2-[[(3S,5R,6S,8R,9R,10R,12R,13R,14R,17S)-17-[(1S)-1,5-dimethyl-1-[(2S,3R,4S,5S,6R)-3,4,5-trihydroxy-6-methylol-tetrahydropyran-2-yl]oxy-hex-4-enyl]-3,12-dihydroxy-4,4,8,10,14-pentamethyl-2,3,5,6,7,9,11,12,13,15,16,17-dodecahydro-1H-cyclopenta[a]phenanthren-6-yl]oxy]-6-methylol-tetrahydropyran-3,4,5-triol

> <PUBCHEM_IUPAC_INCHI>
InChI=1S/C42H72O14/c1-20(2)10-9-13-42(8,56-37-34(52)32(50)30(48)25(19-44)55-37)21-11-15-40(6)28(21)22(45)16-26-39(5)14-12-27(46)38(3,4)35(39)23(17-41(26,40)7)53-36-33(51)31(49)29(47)24(18-43)54-36/h10,21-37,43-52H,9,11-19H2,1-8H3/t21-,22+,23-,24+,25+,26+,27-,28-,29+,30+,31-,32-,33+,34+,35-,36+,37-,39+,40+,41+,42-/m0/s1

> <PUBCHEM_IUPAC_INCHIKEY>
YURJSTAIMNSZAE-HHNZYBFYSA-N

> <PUBCHEM_XLOGP3_AA>
2.7

> <PUBCHEM_EXACT_MASS>
800.492207

> <PUBCHEM_MOLECULAR_FORMULA>
C42H72O14

> <PUBCHEM_MOLECULAR_WEIGHT>
801

> <PUBCHEM_OPENEYE_CAN_SMILES>
CC(=CCCC(C)(C1CCC2(C1C(CC3C2(CC(C4C3(CCC(C4(C)C)O)C)OC5C(C(C(C(O5)CO)O)O)O)C)O)C)OC6C(C(C(C(O6)CO)O)O)O)C

> <PUBCHEM_OPENEYE_ISO_SMILES>
CC(=CCC[C@@](C)([C@H]1CC[C@@]2([C@@H]1[C@@H](C[C@H]3[C@]2(C[C@@H]([C@@H]4[C@@]3(CC[C@@H](C4(C)C)O)C)O[C@H]5[C@@H]([C@H]([C@@H]([C@H](O5)CO)O)O)O)C)O)C)O[C@H]6[C@@H]([C@H]([C@@H]([C@H](O6)CO)O)O)O)C

> <PUBCHEM_CACTVS_TPSA>
239

> <PUBCHEM_MONOISOTOPIC_WEIGHT>
800.492207

> <PUBCHEM_TOTAL_CHARGE>
0

> <PUBCHEM_HEAVY_ATOM_COUNT>
56

> <PUBCHEM_ATOM_DEF_STEREO_COUNT>
21

> <PUBCHEM_ATOM_UDEF_STEREO_COUNT>
0

> <PUBCHEM_BOND_DEF_STEREO_COUNT>
0

> <PUBCHEM_BOND_UDEF_STEREO_COUNT>
0

> <PUBCHEM_ISOTOPIC_ATOM_COUNT>
0

> <PUBCHEM_COMPONENT_COUNT>
1

> <PUBCHEM_CACTVS_TAUTO_COUNT>
-1

> <PUBCHEM_COORDINATE_TYPE>
1
5
255

> <PUBCHEM_BONDANNOTATIONS>
26  1  6
40  1  6
48  10  5
49  11  5
51  12  6
15  30  5
16  31  6
17  57  6
18  32  5
19  58  5
24  2  5
20  59  6
23  64  6
34  3  6
42  3  5
33  4  5
46  52  6
50  54  5
43  7  5
44  8  6
45  9  6

$$$$
