20055812
  -OEChem-08242016193D

 73 78  0     1  0  0  0  0  0999 V2000
   -2.0695    2.7412    0.1879 O   0  0  0  0  0  0  0  0  0  0  0  0
    1.4660    2.7127    0.1148 O   0  0  0  0  0  0  0  0  0  0  0  0
    0.7759   -2.9457   -0.1634 O   0  0  0  0  0  0  0  0  0  0  0  0
   -4.3406    1.2217    1.5102 O   0  0  0  0  0  0  0  0  0  0  0  0
   -4.8510   -0.5503   -1.0908 O   0  0  0  0  0  0  0  0  0  0  0  0
    4.9540    0.6702    0.0685 O   0  0  0  0  0  0  0  0  0  0  0  0
    1.2158   -0.5404   -1.5410 N   0  0  2  0  0  0  0  0  0  0  0  0
    0.2596   -0.7170    0.7786 C   0  0  1  0  0  0  0  0  0  0  0  0
    1.3133    0.4027    1.1374 C   0  0  2  0  0  0  0  0  0  0  0  0
   -1.1088   -0.6049    1.5665 C   0  0  1  0  0  0  0  0  0  0  0  0
    0.0238   -0.2967   -0.6985 C   0  0  1  0  0  0  0  0  0  0  0  0
   -0.3515    1.1988   -0.4887 C   0  0  1  0  0  0  0  0  0  0  0  0
   -1.9343    0.7004    1.4435 C   0  0  1  0  0  0  0  0  0  0  0  0
   -1.8104    1.3311    0.0356 C   0  0  1  0  0  0  0  0  0  0  0  0
    0.6239    1.6961    0.6196 C   0  0  2  0  0  0  0  0  0  0  0  0
    2.6694    0.0670    0.4125 C   0  0  2  0  0  0  0  0  0  0  0  0
    0.8103   -2.1593    1.0246 C   0  0  2  0  0  0  0  0  0  0  0  0
   -2.1429   -1.7038    1.1786 C   0  0  0  0  0  0  0  0  0  0  0  0
   -3.4524   -0.9740    0.8379 C   0  0  1  0  0  0  0  0  0  0  0  0
   -3.3610    0.2363    1.7570 C   0  0  2  0  0  0  0  0  0  0  0  0
    2.4360    0.1555   -1.1228 C   0  0  0  0  0  0  0  0  0  0  0  0
   -2.8693    0.8087   -0.9658 C   0  0  0  0  0  0  0  0  0  0  0  0
    3.1775   -1.3636    0.7758 C   0  0  0  0  0  0  0  0  0  0  0  0
   -3.4886   -0.5644   -0.6488 C   0  0  2  0  0  0  0  0  0  0  0  0
    2.2095   -2.1716    1.6170 C   0  0  0  0  0  0  0  0  0  0  0  0
    3.8084    1.0350    0.8038 C   0  0  0  0  0  0  0  0  0  0  0  0
    0.9444   -0.3248   -2.9598 C   0  0  0  0  0  0  0  0  0  0  0  0
    0.7221    3.8362   -0.3460 C   0  0  0  0  0  0  0  0  0  0  0  0
    2.1014   -0.8054   -3.8193 C   0  0  0  0  0  0  0  0  0  0  0  0
    1.1352   -4.2945    0.0975 C   0  0  0  0  0  0  0  0  0  0  0  0
   -4.9329   -0.3085   -2.4847 C   0  0  0  0  0  0  0  0  0  0  0  0
    6.0669    1.5113    0.3624 C   0  0  0  0  0  0  0  0  0  0  0  0
    1.4718    0.4708    2.2204 H   0  0  0  0  0  0  0  0  0  0  0  0
   -0.8748   -0.7388    2.6333 H   0  0  0  0  0  0  0  0  0  0  0  0
   -0.7979   -0.8725   -1.1277 H   0  0  0  0  0  0  0  0  0  0  0  0
   -0.2624    1.7357   -1.4348 H   0  0  0  0  0  0  0  0  0  0  0  0
   -1.6462    1.4235    2.2157 H   0  0  0  0  0  0  0  0  0  0  0  0
    0.1121    2.1500    1.4727 H   0  0  0  0  0  0  0  0  0  0  0  0
    0.1758   -2.6625    1.7654 H   0  0  0  0  0  0  0  0  0  0  0  0
   -1.8184   -2.3586    0.3652 H   0  0  0  0  0  0  0  0  0  0  0  0
   -2.3077   -2.3492    2.0514 H   0  0  0  0  0  0  0  0  0  0  0  0
   -4.3244   -1.5934    1.0758 H   0  0  0  0  0  0  0  0  0  0  0  0
   -3.4409   -0.0653    2.8092 H   0  0  0  0  0  0  0  0  0  0  0  0
    2.4130    1.1994   -1.4555 H   0  0  0  0  0  0  0  0  0  0  0  0
    3.3051   -0.2902   -1.6208 H   0  0  0  0  0  0  0  0  0  0  0  0
   -3.6740    1.5565   -1.0182 H   0  0  0  0  0  0  0  0  0  0  0  0
   -2.4506    0.7987   -1.9811 H   0  0  0  0  0  0  0  0  0  0  0  0
    3.4192   -1.9324   -0.1311 H   0  0  0  0  0  0  0  0  0  0  0  0
    4.1176   -1.3211    1.3413 H   0  0  0  0  0  0  0  0  0  0  0  0
   -2.9796   -1.3419   -1.2316 H   0  0  0  0  0  0  0  0  0  0  0  0
    2.1697   -1.7341    2.6237 H   0  0  0  0  0  0  0  0  0  0  0  0
    2.6125   -3.1774    1.7662 H   0  0  0  0  0  0  0  0  0  0  0  0
    4.0125    0.9626    1.8798 H   0  0  0  0  0  0  0  0  0  0  0  0
    3.5741    2.0770    0.5831 H   0  0  0  0  0  0  0  0  0  0  0  0
   -2.0309    3.1480   -0.6947 H   0  0  0  0  0  0  0  0  0  0  0  0
    0.7370    0.7275   -3.1856 H   0  0  0  0  0  0  0  0  0  0  0  0
    0.0564   -0.8990   -3.2518 H   0  0  0  0  0  0  0  0  0  0  0  0
   -5.2105    0.7979    1.6051 H   0  0  0  0  0  0  0  0  0  0  0  0
    0.0132    4.1854    0.4100 H   0  0  0  0  0  0  0  0  0  0  0  0
    0.2351    3.6608   -1.3065 H   0  0  0  0  0  0  0  0  0  0  0  0
    1.4394    4.6472   -0.5093 H   0  0  0  0  0  0  0  0  0  0  0  0
    1.7903   -0.8333   -4.8696 H   0  0  0  0  0  0  0  0  0  0  0  0
    2.4158   -1.8184   -3.5451 H   0  0  0  0  0  0  0  0  0  0  0  0
    2.9670   -0.1379   -3.7660 H   0  0  0  0  0  0  0  0  0  0  0  0
    0.7475   -4.9021   -0.7260 H   0  0  0  0  0  0  0  0  0  0  0  0
    0.6966   -4.6747    1.0257 H   0  0  0  0  0  0  0  0  0  0  0  0
    2.2218   -4.4170    0.0948 H   0  0  0  0  0  0  0  0  0  0  0  0
   -4.2415   -0.9425   -3.0497 H   0  0  0  0  0  0  0  0  0  0  0  0
   -4.7735    0.7453   -2.7281 H   0  0  0  0  0  0  0  0  0  0  0  0
   -5.9491   -0.5590   -2.8045 H   0  0  0  0  0  0  0  0  0  0  0  0
    6.3275    1.4427    1.4229 H   0  0  0  0  0  0  0  0  0  0  0  0
    6.9195    1.1709   -0.2311 H   0  0  0  0  0  0  0  0  0  0  0  0
    5.8439    2.5481    0.0931 H   0  0  0  0  0  0  0  0  0  0  0  0
  1 14  1  0  0  0  0
  1 55  1  0  0  0  0
  2 15  1  0  0  0  0
  2 28  1  0  0  0  0
  3 17  1  0  0  0  0
  3 30  1  0  0  0  0
  4 20  1  0  0  0  0
  4 58  1  0  0  0  0
  5 24  1  0  0  0  0
  5 31  1  0  0  0  0
  6 26  1  0  0  0  0
  6 32  1  0  0  0  0
  7 11  1  0  0  0  0
  7 21  1  0  0  0  0
  7 27  1  0  0  0  0
  8  9  1  0  0  0  0
  8 10  1  0  0  0  0
  8 11  1  0  0  0  0
  8 17  1  0  0  0  0
  9 15  1  0  0  0  0
  9 16  1  0  0  0  0
  9 33  1  0  0  0  0
 10 13  1  0  0  0  0
 10 18  1  0  0  0  0
 10 34  1  0  0  0  0
 11 12  1  0  0  0  0
 11 35  1  0  0  0  0
 12 14  1  0  0  0  0
 12 15  1  0  0  0  0
 12 36  1  0  0  0  0
 13 14  1  0  0  0  0
 13 20  1  0  0  0  0
 13 37  1  0  0  0  0
 14 22  1  0  0  0  0
 15 38  1  0  0  0  0
 16 21  1  0  0  0  0
 16 23  1  0  0  0  0
 16 26  1  0  0  0  0
 17 25  1  0  0  0  0
 17 39  1  0  0  0  0
 18 19  1  0  0  0  0
 18 40  1  0  0  0  0
 18 41  1  0  0  0  0
 19 20  1  0  0  0  0
 19 24  1  0  0  0  0
 19 42  1  0  0  0  0
 20 43  1  0  0  0  0
 21 44  1  0  0  0  0
 21 45  1  0  0  0  0
 22 24  1  0  0  0  0
 22 46  1  0  0  0  0
 22 47  1  0  0  0  0
 23 25  1  0  0  0  0
 23 48  1  0  0  0  0
 23 49  1  0  0  0  0
 24 50  1  0  0  0  0
 25 51  1  0  0  0  0
 25 52  1  0  0  0  0
 26 53  1  0  0  0  0
 26 54  1  0  0  0  0
 27 29  1  0  0  0  0
 27 56  1  0  0  0  0
 27 57  1  0  0  0  0
 28 59  1  0  0  0  0
 28 60  1  0  0  0  0
 28 61  1  0  0  0  0
 29 62  1  0  0  0  0
 29 63  1  0  0  0  0
 29 64  1  0  0  0  0
 30 65  1  0  0  0  0
 30 66  1  0  0  0  0
 30 67  1  0  0  0  0
 31 68  1  0  0  0  0
 31 69  1  0  0  0  0
 31 70  1  0  0  0  0
 32 71  1  0  0  0  0
 32 72  1  0  0  0  0
 32 73  1  0  0  0  0
M  END
> <PUBCHEM_COMPOUND_CID>
20055812

> <PUBCHEM_CONFORMER_RMSD>
1

> <PUBCHEM_CONFORMER_DIVERSEORDER>
1

> <PUBCHEM_MMFF94_PARTIAL_CHARGES>
22
1 -0.68
11 0.27
14 0.28
15 0.28
17 0.28
2 -0.56
20 0.28
21 0.27
24 0.28
26 0.28
27 0.27
28 0.28
3 -0.56
30 0.28
31 0.28
32 0.28
4 -0.68
5 -0.56
55 0.4
58 0.4
6 -0.56
7 -0.81

> <PUBCHEM_EFFECTIVE_ROTOR_COUNT>
8

> <PUBCHEM_PHARMACOPHORE_FEATURES>
13
1 1 acceptor
1 1 donor
1 2 acceptor
1 3 acceptor
1 4 acceptor
1 4 donor
1 5 acceptor
1 6 acceptor
1 7 cation
6 8 9 16 17 23 25 rings
8 10 13 14 18 19 20 22 24 rings
8 7 8 9 11 12 15 16 21 rings
8 8 9 10 11 12 13 14 15 rings

> <PUBCHEM_HEAVY_ATOM_COUNT>
32

> <PUBCHEM_ATOM_DEF_STEREO_COUNT>
12

> <PUBCHEM_ATOM_UDEF_STEREO_COUNT>
1

> <PUBCHEM_BOND_DEF_STEREO_COUNT>
0

> <PUBCHEM_BOND_UDEF_STEREO_COUNT>
0

> <PUBCHEM_ISOTOPIC_ATOM_COUNT>
0

> <PUBCHEM_COMPONENT_COUNT>
1

> <PUBCHEM_CACTVS_TAUTO_COUNT>
1

> <PUBCHEM_CONFORMER_ID>
0132070400000001

> <PUBCHEM_MMFF94_ENERGY>
182.7394

> <PUBCHEM_FEATURE_SELFOVERLAP>
67.365

> <PUBCHEM_SHAPE_FINGERPRINT>
10675989 125 17105347906707232885
10863032 1 18335416812411769784
10906281 52 18333453114672786265
10948715 1 18059580234555276778
1100329 8 18121501525174950330
11578080 2 17606671436076955868
12011746 2 18335131033846329224
12553582 1 18335709303863582713
12788726 201 17916864609044888185
13134695 92 18187071824378294323
13140716 1 18045236078636508577
13224815 77 18341897359499413811
13583140 156 18187921854430820483
13911987 19 18262235624870101828
14181834 199 17896599483888446850
14223421 5 18119812400510729776
14787075 74 18341049713697543200
14790565 3 18336274551889037352
15238133 3 17897754005832020137
16945 1 18334019393098956393
17349148 13 17095532807023360472
17980427 23 17313106375556943572
18769570 83 14779812837449269116
18981168 100 10810787019082249327
20600515 1 18266198264671208508
20691752 17 18271540696996441734
21033648 29 17241311603326619817
21756936 100 18270954757000891832
22121540 332 17025956797887094372
22182313 1 17386858209855421419
23227448 37 18050287265578354328
23419403 2 16886888286366938576
23559900 14 18115577287499736824
238 59 18263351629171904247
25222932 49 18126829716054437655
3493558 16 16950556654283478828
350125 39 18046356498075358651
392239 28 18334575776459111840
6669772 16 18272658939863137238
70251023 43 18055069865601174310

> <PUBCHEM_SHAPE_MULTIPOLES>
618.35
8.06
3.26
2.41
0.25
0.78
2.73
-1.99
0.33
1.67
-0.58
-0.39
0.56
-0.05

> <PUBCHEM_SHAPE_SELFOVERLAP>
1345.823

> <PUBCHEM_SHAPE_VOLUME>
331.7

> <PUBCHEM_COORDINATE_TYPE>
2
5
10

$$$$
