20055838
  -OEChem-08242016213D

 95101  0     1  0  0  0  0  0999 V2000
   -0.9607   -1.0673    0.8172 O   0  0  0  0  0  0  0  0  0  0  0  0
    2.2124   -2.7786    0.7470 O   0  0  0  0  0  0  0  0  0  0  0  0
    3.6148    2.8858   -0.7552 O   0  0  0  0  0  0  0  0  0  0  0  0
   -2.4263    0.7942   -0.9403 O   0  0  0  0  0  0  0  0  0  0  0  0
   -1.3319    3.6590   -1.2389 O   0  0  0  0  0  0  0  0  0  0  0  0
   -2.3471    2.6725    1.1117 O   0  0  0  0  0  0  0  0  0  0  0  0
    4.7175   -2.9127   -1.9863 O   0  0  0  0  0  0  0  0  0  0  0  0
   -0.7317   -1.0141    3.1154 O   0  0  0  0  0  0  0  0  0  0  0  0
   -2.7195   -0.3029   -2.9429 O   0  0  0  0  0  0  0  0  0  0  0  0
   -8.1323   -1.4912    0.2340 O   0  0  0  0  0  0  0  0  0  0  0  0
    3.7654    0.3372    1.5684 N   0  0  2  0  0  0  0  0  0  0  0  0
    2.6206    0.6262   -0.6407 C   0  0  1  0  0  0  0  0  0  0  0  0
    2.9247   -0.9162   -0.8303 C   0  0  2  0  0  0  0  0  0  0  0  0
    1.2451    1.0932   -1.2851 C   0  0  1  0  0  0  0  0  0  0  0  0
    2.4743    0.6026    0.8999 C   0  0  1  0  0  0  0  0  0  0  0  0
    1.3878   -0.5139    1.0488 C   0  0  1  0  0  0  0  0  0  0  0  0
   -0.0212    0.3126   -0.8958 C   0  0  1  0  0  0  0  0  0  0  0  0
   -0.0259    0.0111    0.6244 C   0  0  1  0  0  0  0  0  0  0  0  0
    1.8325   -1.6121    0.0427 C   0  0  2  0  0  0  0  0  0  0  0  0
    4.3803   -1.2158   -0.3390 C   0  0  2  0  0  0  0  0  0  0  0  0
    3.7429    1.5450   -1.2245 C   0  0  2  0  0  0  0  0  0  0  0  0
    0.8101    2.5611   -1.0000 C   0  0  0  0  0  0  0  0  0  0  0  0
   -0.6998    2.5220   -0.6728 C   0  0  2  0  0  0  0  0  0  0  0  0
   -1.1484    1.2384   -1.3467 C   0  0  2  0  0  0  0  0  0  0  0  0
   -0.5028    1.1780    1.5398 C   0  0  0  0  0  0  0  0  0  0  0  0
    4.4605   -0.8997    1.1831 C   0  0  0  0  0  0  0  0  0  0  0  0
    5.3805   -0.3526   -1.1448 C   0  0  0  0  0  0  0  0  0  0  0  0
   -0.9524    2.4776    0.8437 C   0  0  2  0  0  0  0  0  0  0  0  0
    5.1809    1.1314   -0.9612 C   0  0  0  0  0  0  0  0  0  0  0  0
    4.8135   -2.6767   -0.6001 C   0  0  0  0  0  0  0  0  0  0  0  0
    3.6824    0.4703    3.0196 C   0  0  0  0  0  0  0  0  0  0  0  0
   -1.3716   -1.2526    2.1001 C   0  0  0  0  0  0  0  0  0  0  0  0
    1.0821   -3.5469    1.1448 C   0  0  0  0  0  0  0  0  0  0  0  0
    5.0655    0.5055    3.6475 C   0  0  0  0  0  0  0  0  0  0  0  0
    4.1317    3.8143   -1.6961 C   0  0  0  0  0  0  0  0  0  0  0  0
   -3.1148    0.0260   -1.8352 C   0  0  0  0  0  0  0  0  0  0  0  0
   -2.5452    3.2255    2.4007 C   0  0  0  0  0  0  0  0  0  0  0  0
   -2.7637   -1.8077    2.0965 C   0  0  0  0  0  0  0  0  0  0  0  0
    5.0991   -4.2428   -2.3287 C   0  0  0  0  0  0  0  0  0  0  0  0
   -4.4372   -0.3731   -1.2907 C   0  0  0  0  0  0  0  0  0  0  0  0
   -5.0170   -1.5799   -1.6823 C   0  0  0  0  0  0  0  0  0  0  0  0
   -5.0994    0.4581   -0.3873 C   0  0  0  0  0  0  0  0  0  0  0  0
   -6.2590   -1.9553   -1.1704 C   0  0  0  0  0  0  0  0  0  0  0  0
   -6.3414    0.0828    0.1245 C   0  0  0  0  0  0  0  0  0  0  0  0
   -6.9212   -1.1240   -0.2671 C   0  0  0  0  0  0  0  0  0  0  0  0
   -8.7538   -0.5942    1.1530 C   0  0  0  0  0  0  0  0  0  0  0  0
    2.8069   -1.1939   -1.8846 H   0  0  0  0  0  0  0  0  0  0  0  0
    1.3560    0.9951   -2.3755 H   0  0  0  0  0  0  0  0  0  0  0  0
    2.1252    1.5745    1.2542 H   0  0  0  0  0  0  0  0  0  0  0  0
    1.3763   -0.8923    2.0731 H   0  0  0  0  0  0  0  0  0  0  0  0
   -0.1229   -0.6061   -1.4829 H   0  0  0  0  0  0  0  0  0  0  0  0
    1.0448   -1.9249   -0.6453 H   0  0  0  0  0  0  0  0  0  0  0  0
    3.6041    1.5251   -2.3160 H   0  0  0  0  0  0  0  0  0  0  0  0
    1.3480    3.0276   -0.1719 H   0  0  0  0  0  0  0  0  0  0  0  0
    1.0098    3.1761   -1.8864 H   0  0  0  0  0  0  0  0  0  0  0  0
   -1.1284    1.3839   -2.4365 H   0  0  0  0  0  0  0  0  0  0  0  0
   -1.3423    0.9162    2.1804 H   0  0  0  0  0  0  0  0  0  0  0  0
    0.2922    1.4472    2.2452 H   0  0  0  0  0  0  0  0  0  0  0  0
    5.5237   -0.8229    1.4425 H   0  0  0  0  0  0  0  0  0  0  0  0
    4.0762   -1.7433    1.7676 H   0  0  0  0  0  0  0  0  0  0  0  0
    5.2973   -0.5710   -2.2175 H   0  0  0  0  0  0  0  0  0  0  0  0
    6.4119   -0.5997   -0.8608 H   0  0  0  0  0  0  0  0  0  0  0  0
   -0.4126    3.3272    1.2858 H   0  0  0  0  0  0  0  0  0  0  0  0
    5.5109    1.4541    0.0332 H   0  0  0  0  0  0  0  0  0  0  0  0
    5.8568    1.6522   -1.6506 H   0  0  0  0  0  0  0  0  0  0  0  0
    4.2158   -3.4102   -0.0567 H   0  0  0  0  0  0  0  0  0  0  0  0
    5.8536   -2.8195   -0.2779 H   0  0  0  0  0  0  0  0  0  0  0  0
    3.0938   -0.3356    3.4731 H   0  0  0  0  0  0  0  0  0  0  0  0
    3.1844    1.4142    3.2732 H   0  0  0  0  0  0  0  0  0  0  0  0
   -1.1914    3.6416   -2.2008 H   0  0  0  0  0  0  0  0  0  0  0  0
    0.5897   -3.0912    2.0037 H   0  0  0  0  0  0  0  0  0  0  0  0
    0.3772   -3.7037    0.3226 H   0  0  0  0  0  0  0  0  0  0  0  0
    1.4469   -4.5277    1.4642 H   0  0  0  0  0  0  0  0  0  0  0  0
    4.9838    0.7982    4.7002 H   0  0  0  0  0  0  0  0  0  0  0  0
    5.7141    1.2369    3.1532 H   0  0  0  0  0  0  0  0  0  0  0  0
    5.5570   -0.4721    3.6282 H   0  0  0  0  0  0  0  0  0  0  0  0
    5.2153    3.7228   -1.8031 H   0  0  0  0  0  0  0  0  0  0  0  0
    3.6402    3.7081   -2.6684 H   0  0  0  0  0  0  0  0  0  0  0  0
    3.9203    4.8205   -1.3224 H   0  0  0  0  0  0  0  0  0  0  0  0
   -3.6229    3.2967    2.5748 H   0  0  0  0  0  0  0  0  0  0  0  0
   -2.1306    4.2376    2.4492 H   0  0  0  0  0  0  0  0  0  0  0  0
   -2.1155    2.6115    3.1968 H   0  0  0  0  0  0  0  0  0  0  0  0
   -3.4743   -1.0131    1.8606 H   0  0  0  0  0  0  0  0  0  0  0  0
   -2.9931   -2.2130    3.0861 H   0  0  0  0  0  0  0  0  0  0  0  0
   -2.8435   -2.6224    1.3718 H   0  0  0  0  0  0  0  0  0  0  0  0
    5.0091   -4.3568   -3.4122 H   0  0  0  0  0  0  0  0  0  0  0  0
    4.4368   -4.9665   -1.8438 H   0  0  0  0  0  0  0  0  0  0  0  0
    6.1384   -4.4281   -2.0412 H   0  0  0  0  0  0  0  0  0  0  0  0
   -4.5120   -2.2403   -2.3824 H   0  0  0  0  0  0  0  0  0  0  0  0
   -4.6761    1.4088   -0.0752 H   0  0  0  0  0  0  0  0  0  0  0  0
   -6.7052   -2.8971   -1.4779 H   0  0  0  0  0  0  0  0  0  0  0  0
   -6.8014    0.7762    0.8202 H   0  0  0  0  0  0  0  0  0  0  0  0
   -9.7072   -1.0440    1.4491 H   0  0  0  0  0  0  0  0  0  0  0  0
   -8.9865    0.3670    0.6822 H   0  0  0  0  0  0  0  0  0  0  0  0
   -8.1590   -0.4765    2.0652 H   0  0  0  0  0  0  0  0  0  0  0  0
  1 18  1  0  0  0  0
  1 32  1  0  0  0  0
  2 19  1  0  0  0  0
  2 33  1  0  0  0  0
  3 21  1  0  0  0  0
  3 35  1  0  0  0  0
  4 24  1  0  0  0  0
  4 36  1  0  0  0  0
  5 23  1  0  0  0  0
  5 70  1  0  0  0  0
  6 28  1  0  0  0  0
  6 37  1  0  0  0  0
  7 30  1  0  0  0  0
  7 39  1  0  0  0  0
  8 32  2  0  0  0  0
  9 36  2  0  0  0  0
 10 45  1  0  0  0  0
 10 46  1  0  0  0  0
 11 15  1  0  0  0  0
 11 26  1  0  0  0  0
 11 31  1  0  0  0  0
 12 13  1  0  0  0  0
 12 14  1  0  0  0  0
 12 15  1  0  0  0  0
 12 21  1  0  0  0  0
 13 19  1  0  0  0  0
 13 20  1  0  0  0  0
 13 47  1  0  0  0  0
 14 17  1  0  0  0  0
 14 22  1  0  0  0  0
 14 48  1  0  0  0  0
 15 16  1  0  0  0  0
 15 49  1  0  0  0  0
 16 18  1  0  0  0  0
 16 19  1  0  0  0  0
 16 50  1  0  0  0  0
 17 18  1  0  0  0  0
 17 24  1  0  0  0  0
 17 51  1  0  0  0  0
 18 25  1  0  0  0  0
 19 52  1  0  0  0  0
 20 26  1  0  0  0  0
 20 27  1  0  0  0  0
 20 30  1  0  0  0  0
 21 29  1  0  0  0  0
 21 53  1  0  0  0  0
 22 23  1  0  0  0  0
 22 54  1  0  0  0  0
 22 55  1  0  0  0  0
 23 24  1  0  0  0  0
 23 28  1  0  0  0  0
 24 56  1  0  0  0  0
 25 28  1  0  0  0  0
 25 57  1  0  0  0  0
 25 58  1  0  0  0  0
 26 59  1  0  0  0  0
 26 60  1  0  0  0  0
 27 29  1  0  0  0  0
 27 61  1  0  0  0  0
 27 62  1  0  0  0  0
 28 63  1  0  0  0  0
 29 64  1  0  0  0  0
 29 65  1  0  0  0  0
 30 66  1  0  0  0  0
 30 67  1  0  0  0  0
 31 34  1  0  0  0  0
 31 68  1  0  0  0  0
 31 69  1  0  0  0  0
 32 38  1  0  0  0  0
 33 71  1  0  0  0  0
 33 72  1  0  0  0  0
 33 73  1  0  0  0  0
 34 74  1  0  0  0  0
 34 75  1  0  0  0  0
 34 76  1  0  0  0  0
 35 77  1  0  0  0  0
 35 78  1  0  0  0  0
 35 79  1  0  0  0  0
 36 40  1  0  0  0  0
 37 80  1  0  0  0  0
 37 81  1  0  0  0  0
 37 82  1  0  0  0  0
 38 83  1  0  0  0  0
 38 84  1  0  0  0  0
 38 85  1  0  0  0  0
 39 86  1  0  0  0  0
 39 87  1  0  0  0  0
 39 88  1  0  0  0  0
 40 41  2  0  0  0  0
 40 42  1  0  0  0  0
 41 43  1  0  0  0  0
 41 89  1  0  0  0  0
 42 44  2  0  0  0  0
 42 90  1  0  0  0  0
 43 45  2  0  0  0  0
 43 91  1  0  0  0  0
 44 45  1  0  0  0  0
 44 92  1  0  0  0  0
 46 93  1  0  0  0  0
 46 94  1  0  0  0  0
 46 95  1  0  0  0  0
M  END
> <PUBCHEM_COMPOUND_CID>
20055838

> <PUBCHEM_CONFORMER_RMSD>
1.4

> <PUBCHEM_CONFORMER_DIVERSEORDER>
1
3
2

> <PUBCHEM_MMFF94_PARTIAL_CHARGES>
40
1 -0.43
10 -0.36
11 -0.81
15 0.27
18 0.28
19 0.28
2 -0.56
21 0.28
23 0.28
24 0.28
26 0.27
28 0.28
3 -0.56
30 0.28
31 0.27
32 0.66
33 0.28
35 0.28
36 0.63
37 0.28
38 0.06
39 0.28
4 -0.43
40 0.09
41 -0.15
42 -0.15
43 -0.15
44 -0.15
45 0.08
46 0.28
5 -0.68
6 -0.56
7 -0.56
70 0.4
8 -0.57
89 0.15
9 -0.57
90 0.15
91 0.15
92 0.15

> <PUBCHEM_EFFECTIVE_ROTOR_COUNT>
14

> <PUBCHEM_PHARMACOPHORE_FEATURES>
15
1 10 acceptor
1 11 cation
1 2 acceptor
1 3 acceptor
1 5 acceptor
1 5 donor
1 6 acceptor
1 7 acceptor
1 8 acceptor
1 9 acceptor
6 12 13 20 21 27 29 rings
6 40 41 42 43 44 45 rings
8 11 12 13 15 16 19 20 26 rings
8 12 13 14 15 16 17 18 19 rings
8 14 17 18 22 23 24 25 28 rings

> <PUBCHEM_HEAVY_ATOM_COUNT>
46

> <PUBCHEM_ATOM_DEF_STEREO_COUNT>
12

> <PUBCHEM_ATOM_UDEF_STEREO_COUNT>
1

> <PUBCHEM_BOND_DEF_STEREO_COUNT>
0

> <PUBCHEM_BOND_UDEF_STEREO_COUNT>
0

> <PUBCHEM_ISOTOPIC_ATOM_COUNT>
0

> <PUBCHEM_COMPONENT_COUNT>
1

> <PUBCHEM_CACTVS_TAUTO_COUNT>
1

> <PUBCHEM_CONFORMER_ID>
0132071E00000001

> <PUBCHEM_MMFF94_ENERGY>
239.9578

> <PUBCHEM_FEATURE_SELFOVERLAP>
77.617

> <PUBCHEM_SHAPE_FINGERPRINT>
10190108 129 18268725926377049299
11421498 54 18410287000465085441
11578080 2 17901667399284799713
11763715 3 17846509135841395240
12788726 201 18186513285240806533
13782708 43 17988081075938298831
13811026 1 18040432196075030509
14040221 97 17027710682068593197
15082195 135 18337400413140537480
15131766 46 15121510402612641288
15183329 4 17749388191823451131
15238133 3 12535336939663090102
15324884 4 17534656933788663402
15721738 202 18333732438160992837
17349148 13 17968366858453862472
18393751 57 17628042863272695192
18603816 31 17480871827198478126
20775438 99 18043520810190352478
21033648 29 15123516909029355535
21344244 181 18259993669111364011
21814621 53 17988074500991780099
22149856 69 18411423895693966905
23559900 14 18186523211447622092
25223398 141 17774440473535621041
4093350 32 18340487871476373476
469060 322 18188205390992288105
563151 248 17912666621956924633
57527293 21 16056583378964222252
57527295 17 17606691215055084926
6669772 16 16951394597728249560
70251023 43 18341619166020447494

> <PUBCHEM_SHAPE_MULTIPOLES>
882.98
15.75
4
2.85
27.2
0.11
-1.74
-8.51
1.77
-3.86
1.32
-1.83
-0.05
0.21

> <PUBCHEM_SHAPE_SELFOVERLAP>
1925.44

> <PUBCHEM_SHAPE_VOLUME>
475

> <PUBCHEM_COORDINATE_TYPE>
2
5
10

$$$$
