101671038
  -OEChem-08242015553D

 72 77  0     1  0  0  0  0  0999 V2000
    1.2673    2.8544   -0.3589 O   0  0  0  0  0  0  0  0  0  0  0  0
   -2.1494    2.4334    0.3040 O   0  0  0  0  0  0  0  0  0  0  0  0
   -0.1330   -3.2536    0.1939 O   0  0  0  0  0  0  0  0  0  0  0  0
    4.1835   -1.3966   -1.4662 O   0  0  0  0  0  0  0  0  0  0  0  0
    3.4870    1.5344   -1.9859 O   0  0  0  0  0  0  0  0  0  0  0  0
    2.2902    1.2279    2.1527 O   0  0  0  0  0  0  0  0  0  0  0  0
    4.7184    0.1937    0.5547 O   0  0  0  0  0  0  0  0  0  0  0  0
   -4.3862    0.7746   -1.4343 O   0  0  0  0  0  0  0  0  0  0  0  0
   -1.3166   -0.6155    2.0607 N   0  0  2  0  0  0  0  0  0  0  0  0
   -0.6552   -0.8844   -0.3331 C   0  0  1  0  0  0  0  0  0  0  0  0
   -1.8541    0.1028   -0.6296 C   0  0  2  0  0  0  0  0  0  0  0  0
    0.5857   -0.6962   -1.3121 C   0  0  1  0  0  0  0  0  0  0  0  0
   -0.2713   -0.3231    1.0574 C   0  0  1  0  0  0  0  0  0  0  0  0
   -0.0904    1.1830    0.6967 C   0  0  1  0  0  0  0  0  0  0  0  0
    1.2228    0.7126   -1.4334 C   0  0  1  0  0  0  0  0  0  0  0  0
    1.2452    1.4378   -0.0623 C   0  0  1  0  0  0  0  0  0  0  0  0
   -1.2636    1.4967   -0.2771 C   0  0  2  0  0  0  0  0  0  0  0  0
   -3.0782   -0.2788    0.2648 C   0  0  2  0  0  0  0  0  0  0  0  0
   -1.0999   -2.3869   -0.3944 C   0  0  2  0  0  0  0  0  0  0  0  0
    1.8186   -1.5886   -1.0005 C   0  0  0  0  0  0  0  0  0  0  0  0
    3.0555   -0.6693   -1.0065 C   0  0  2  0  0  0  0  0  0  0  0  0
    2.6252    0.4148   -1.9815 C   0  0  2  0  0  0  0  0  0  0  0  0
    2.5453    1.1778    0.7473 C   0  0  2  0  0  0  0  0  0  0  0  0
   -2.6667   -0.1132    1.7580 C   0  0  0  0  0  0  0  0  0  0  0  0
    3.3219   -0.1122    0.4113 C   0  0  2  0  0  0  0  0  0  0  0  0
   -3.5006   -1.7331   -0.0463 C   0  0  0  0  0  0  0  0  0  0  0  0
   -2.4269   -2.7466    0.2553 C   0  0  0  0  0  0  0  0  0  0  0  0
   -4.3330    0.5722   -0.0405 C   0  0  0  0  0  0  0  0  0  0  0  0
   -0.9075   -0.2552    3.4148 C   0  0  0  0  0  0  0  0  0  0  0  0
   -1.6593    3.7655    0.1917 C   0  0  0  0  0  0  0  0  0  0  0  0
   -0.1657   -4.5432   -0.3987 C   0  0  0  0  0  0  0  0  0  0  0  0
    5.1074    0.1606    1.9156 C   0  0  0  0  0  0  0  0  0  0  0  0
   -5.5165    1.5543   -1.8175 C   0  0  0  0  0  0  0  0  0  0  0  0
   -2.1076    0.0484   -1.6950 H   0  0  0  0  0  0  0  0  0  0  0  0
    0.2366   -0.9716   -2.3185 H   0  0  0  0  0  0  0  0  0  0  0  0
    0.6613   -0.7721    1.4086 H   0  0  0  0  0  0  0  0  0  0  0  0
   -0.1399    1.8191    1.5865 H   0  0  0  0  0  0  0  0  0  0  0  0
    0.7057    1.3172   -2.1873 H   0  0  0  0  0  0  0  0  0  0  0  0
   -0.9427    1.9350   -1.2252 H   0  0  0  0  0  0  0  0  0  0  0  0
   -1.1974   -2.6199   -1.4654 H   0  0  0  0  0  0  0  0  0  0  0  0
    1.7713   -2.1122   -0.0458 H   0  0  0  0  0  0  0  0  0  0  0  0
    1.9034   -2.3667   -1.7703 H   0  0  0  0  0  0  0  0  0  0  0  0
    2.5807    0.0279   -3.0075 H   0  0  0  0  0  0  0  0  0  0  0  0
    3.2292    2.0205    0.5711 H   0  0  0  0  0  0  0  0  0  0  0  0
   -2.7418    0.9372    2.0616 H   0  0  0  0  0  0  0  0  0  0  0  0
   -3.3917   -0.6477    2.3863 H   0  0  0  0  0  0  0  0  0  0  0  0
    3.0833   -0.8988    1.1388 H   0  0  0  0  0  0  0  0  0  0  0  0
   -3.7800   -1.8198   -1.1052 H   0  0  0  0  0  0  0  0  0  0  0  0
   -4.3952   -2.0039    0.5296 H   0  0  0  0  0  0  0  0  0  0  0  0
   -2.3126   -2.8873    1.3368 H   0  0  0  0  0  0  0  0  0  0  0  0
   -2.7741   -3.7219   -0.1072 H   0  0  0  0  0  0  0  0  0  0  0  0
   -5.2461    0.0704    0.3048 H   0  0  0  0  0  0  0  0  0  0  0  0
   -4.3056    1.5409    0.4678 H   0  0  0  0  0  0  0  0  0  0  0  0
    1.3312    3.3333    0.4851 H   0  0  0  0  0  0  0  0  0  0  0  0
    0.0492   -0.7244    3.6698 H   0  0  0  0  0  0  0  0  0  0  0  0
   -1.6373   -0.6218    4.1452 H   0  0  0  0  0  0  0  0  0  0  0  0
   -0.8070    0.8268    3.5485 H   0  0  0  0  0  0  0  0  0  0  0  0
    4.0032   -1.6990   -2.3724 H   0  0  0  0  0  0  0  0  0  0  0  0
    3.0617    2.2267   -2.5200 H   0  0  0  0  0  0  0  0  0  0  0  0
    1.9678    2.1214    2.3607 H   0  0  0  0  0  0  0  0  0  0  0  0
   -1.4081    4.0182   -0.8430 H   0  0  0  0  0  0  0  0  0  0  0  0
   -0.8044    3.9251    0.8521 H   0  0  0  0  0  0  0  0  0  0  0  0
   -2.4565    4.4398    0.5181 H   0  0  0  0  0  0  0  0  0  0  0  0
    0.6611   -5.1236    0.0215 H   0  0  0  0  0  0  0  0  0  0  0  0
   -0.0172   -4.4857   -1.4817 H   0  0  0  0  0  0  0  0  0  0  0  0
   -1.0919   -5.0743   -0.1665 H   0  0  0  0  0  0  0  0  0  0  0  0
    6.1991    0.2290    1.9501 H   0  0  0  0  0  0  0  0  0  0  0  0
    4.8202   -0.7776    2.4008 H   0  0  0  0  0  0  0  0  0  0  0  0
    4.7151    1.0180    2.4672 H   0  0  0  0  0  0  0  0  0  0  0  0
   -5.5001    1.6700   -2.9044 H   0  0  0  0  0  0  0  0  0  0  0  0
   -5.4687    2.5464   -1.3584 H   0  0  0  0  0  0  0  0  0  0  0  0
   -6.4438    1.0486   -1.5320 H   0  0  0  0  0  0  0  0  0  0  0  0
  1 16  1  0  0  0  0
  1 54  1  0  0  0  0
  2 17  1  0  0  0  0
  2 30  1  0  0  0  0
  3 19  1  0  0  0  0
  3 31  1  0  0  0  0
  4 21  1  0  0  0  0
  4 58  1  0  0  0  0
  5 22  1  0  0  0  0
  5 59  1  0  0  0  0
  6 23  1  0  0  0  0
  6 60  1  0  0  0  0
  7 25  1  0  0  0  0
  7 32  1  0  0  0  0
  8 28  1  0  0  0  0
  8 33  1  0  0  0  0
  9 13  1  0  0  0  0
  9 24  1  0  0  0  0
  9 29  1  0  0  0  0
 10 11  1  0  0  0  0
 10 12  1  0  0  0  0
 10 13  1  0  0  0  0
 10 19  1  0  0  0  0
 11 17  1  0  0  0  0
 11 18  1  0  0  0  0
 11 34  1  0  0  0  0
 12 15  1  0  0  0  0
 12 20  1  0  0  0  0
 12 35  1  0  0  0  0
 13 14  1  0  0  0  0
 13 36  1  0  0  0  0
 14 16  1  0  0  0  0
 14 17  1  0  0  0  0
 14 37  1  0  0  0  0
 15 16  1  0  0  0  0
 15 22  1  0  0  0  0
 15 38  1  0  0  0  0
 16 23  1  0  0  0  0
 17 39  1  0  0  0  0
 18 24  1  0  0  0  0
 18 26  1  0  0  0  0
 18 28  1  0  0  0  0
 19 27  1  0  0  0  0
 19 40  1  0  0  0  0
 20 21  1  0  0  0  0
 20 41  1  0  0  0  0
 20 42  1  0  0  0  0
 21 22  1  0  0  0  0
 21 25  1  0  0  0  0
 22 43  1  0  0  0  0
 23 25  1  0  0  0  0
 23 44  1  0  0  0  0
 24 45  1  0  0  0  0
 24 46  1  0  0  0  0
 25 47  1  0  0  0  0
 26 27  1  0  0  0  0
 26 48  1  0  0  0  0
 26 49  1  0  0  0  0
 27 50  1  0  0  0  0
 27 51  1  0  0  0  0
 28 52  1  0  0  0  0
 28 53  1  0  0  0  0
 29 55  1  0  0  0  0
 29 56  1  0  0  0  0
 29 57  1  0  0  0  0
 30 61  1  0  0  0  0
 30 62  1  0  0  0  0
 30 63  1  0  0  0  0
 31 64  1  0  0  0  0
 31 65  1  0  0  0  0
 31 66  1  0  0  0  0
 32 67  1  0  0  0  0
 32 68  1  0  0  0  0
 32 69  1  0  0  0  0
 33 70  1  0  0  0  0
 33 71  1  0  0  0  0
 33 72  1  0  0  0  0
M  END
> <PUBCHEM_COMPOUND_CID>
101671038

> <PUBCHEM_CONFORMER_RMSD>
1

> <PUBCHEM_CONFORMER_DIVERSEORDER>
1

> <PUBCHEM_MMFF94_PARTIAL_CHARGES>
28
1 -0.68
13 0.27
16 0.28
17 0.28
19 0.28
2 -0.56
21 0.28
22 0.28
23 0.28
24 0.27
25 0.28
28 0.28
29 0.27
3 -0.56
30 0.28
31 0.28
32 0.28
33 0.28
4 -0.68
5 -0.68
54 0.4
58 0.4
59 0.4
6 -0.68
60 0.4
7 -0.56
8 -0.56
9 -0.81

> <PUBCHEM_EFFECTIVE_ROTOR_COUNT>
7

> <PUBCHEM_PHARMACOPHORE_FEATURES>
17
1 1 acceptor
1 1 donor
1 2 acceptor
1 3 acceptor
1 4 acceptor
1 4 donor
1 5 acceptor
1 5 donor
1 6 acceptor
1 6 donor
1 7 acceptor
1 8 acceptor
1 9 cation
6 10 11 18 19 26 27 rings
8 10 11 12 13 14 15 16 17 rings
8 12 15 16 20 21 22 23 25 rings
8 9 10 11 13 14 17 18 24 rings

> <PUBCHEM_HEAVY_ATOM_COUNT>
33

> <PUBCHEM_ATOM_DEF_STEREO_COUNT>
14

> <PUBCHEM_ATOM_UDEF_STEREO_COUNT>
0

> <PUBCHEM_BOND_DEF_STEREO_COUNT>
0

> <PUBCHEM_BOND_UDEF_STEREO_COUNT>
0

> <PUBCHEM_ISOTOPIC_ATOM_COUNT>
0

> <PUBCHEM_COMPONENT_COUNT>
1

> <PUBCHEM_CACTVS_TAUTO_COUNT>
1

> <PUBCHEM_CONFORMER_ID>
060F607E00000001

> <PUBCHEM_MMFF94_ENERGY>
193.9053

> <PUBCHEM_FEATURE_SELFOVERLAP>
87.785

> <PUBCHEM_SHAPE_FINGERPRINT>
10366900 7 17561083644117000904
10863032 1 18199754798215277487
10930396 42 17908941622638692904
10948715 1 17458067049736182287
11370993 70 18342168981689629311
11578080 2 17315887087919752436
12011746 2 18202561779009037988
12156800 1 17117127163689840909
12553582 1 18268451163779841116
12633257 1 18272363200988163898
12788726 201 18262248831530234488
13140716 1 18268433601874813057
13224815 77 16917083177752372046
14223421 5 17554057919212723554
14787075 74 16343410786889444392
16752209 62 18338246955083351644
16945 1 18340783601291089133
17349148 13 17632589257073078175
20511986 3 17749096834158770580
20600515 1 18200032996126660024
20691752 17 18201450159256479497
20715895 44 18189326888678543261
20905425 154 17837782118492904639
21033648 29 18271524192049059456
23419403 2 17272554291075988083
23559900 14 18342468036600199942
2748010 2 17913500304630432687

> <PUBCHEM_SHAPE_MULTIPOLES>
627.19
7.84
3.5
2.15
0.64
1.93
-1.18
-2.09
1.5
-1.69
0.5
0.58
-0.3
0.94

> <PUBCHEM_SHAPE_SELFOVERLAP>
1373.918

> <PUBCHEM_SHAPE_VOLUME>
335.7

> <PUBCHEM_COORDINATE_TYPE>
2
5
10

$$$$
