441709
  -OEChem-08242016123D

 58 63  0     1  0  0  0  0  0999 V2000
   -0.6719   -2.0063    0.3851 O   0  0  0  0  0  0  0  0  0  0  0  0
    3.1004    2.2837    0.1464 O   0  0  0  0  0  0  0  0  0  0  0  0
   -2.7125   -1.2191   -0.4600 N   0  0  2  0  0  0  0  0  0  0  0  0
   -0.6165    0.2894   -0.6477 C   0  0  2  0  0  0  0  0  0  0  0  0
    0.9625    0.3410   -0.5658 C   0  0  1  0  0  0  0  0  0  0  0  0
   -1.2174    1.2100    0.4557 C   0  0  1  0  0  0  0  0  0  0  0  0
    1.6669    0.3659    0.8443 C   0  0  1  0  0  0  0  0  0  0  0  0
   -2.7705    1.1593    0.3723 C   0  0  2  0  0  0  0  0  0  0  0  0
   -1.2483   -1.1474   -0.5934 C   0  0  1  0  0  0  0  0  0  0  0  0
   -0.6199    0.9183    1.8428 C   0  0  0  0  0  0  0  0  0  0  0  0
    0.8791    1.2173    1.8498 C   0  0  0  0  0  0  0  0  0  0  0  0
   -1.0280    0.9321   -2.0242 C   0  0  0  0  0  0  0  0  0  0  0  0
    1.7144   -0.6382   -1.5030 C   0  0  0  0  0  0  0  0  0  0  0  0
    1.9156   -1.0566    1.4216 C   0  0  0  0  0  0  0  0  0  0  0  0
    3.0164   -1.1302   -0.8436 C   0  0  2  0  0  0  0  0  0  0  0  0
    3.1210    0.9411    0.6210 C   0  0  1  0  0  0  0  0  0  0  0  0
   -3.2558   -0.2987    0.5423 C   0  0  0  0  0  0  0  0  0  0  0  0
   -3.2090    1.7537   -0.9972 C   0  0  0  0  0  0  0  0  0  0  0  0
   -2.5280    1.1452   -2.2209 C   0  0  0  0  0  0  0  0  0  0  0  0
    2.6437   -1.9452    0.4042 C   0  0  0  0  0  0  0  0  0  0  0  0
    3.8320    0.0675   -0.3968 C   0  0  0  0  0  0  0  0  0  0  0  0
   -3.4325    2.0193    1.4699 C   0  0  0  0  0  0  0  0  0  0  0  0
   -2.9067   -2.6154   -0.0625 C   0  0  0  0  0  0  0  0  0  0  0  0
   -1.7026   -2.9064    0.8117 C   0  0  0  0  0  0  0  0  0  0  0  0
    5.0673    0.3197   -0.8517 C   0  0  0  0  0  0  0  0  0  0  0  0
    1.1899    1.3368   -0.9775 H   0  0  0  0  0  0  0  0  0  0  0  0
   -0.9255    2.2473    0.2251 H   0  0  0  0  0  0  0  0  0  0  0  0
   -1.0210   -1.6265   -1.5557 H   0  0  0  0  0  0  0  0  0  0  0  0
   -0.8098   -0.1104    2.1604 H   0  0  0  0  0  0  0  0  0  0  0  0
   -1.0781    1.5658    2.5976 H   0  0  0  0  0  0  0  0  0  0  0  0
    1.0059    2.2840    1.6305 H   0  0  0  0  0  0  0  0  0  0  0  0
    1.2738    1.0697    2.8628 H   0  0  0  0  0  0  0  0  0  0  0  0
   -0.6451    0.3261   -2.8548 H   0  0  0  0  0  0  0  0  0  0  0  0
   -0.5464    1.9148   -2.1231 H   0  0  0  0  0  0  0  0  0  0  0  0
    1.9434   -0.1299   -2.4488 H   0  0  0  0  0  0  0  0  0  0  0  0
    1.1061   -1.5076   -1.7658 H   0  0  0  0  0  0  0  0  0  0  0  0
    1.0079   -1.5380    1.7835 H   0  0  0  0  0  0  0  0  0  0  0  0
    2.5441   -0.9779    2.3205 H   0  0  0  0  0  0  0  0  0  0  0  0
    3.5709   -1.7621   -1.5466 H   0  0  0  0  0  0  0  0  0  0  0  0
    3.6831    0.9265    1.5639 H   0  0  0  0  0  0  0  0  0  0  0  0
   -3.0193   -0.6350    1.5601 H   0  0  0  0  0  0  0  0  0  0  0  0
   -4.3509   -0.3225    0.4644 H   0  0  0  0  0  0  0  0  0  0  0  0
   -2.9894    2.8306   -0.9980 H   0  0  0  0  0  0  0  0  0  0  0  0
   -4.2966    1.6685   -1.1173 H   0  0  0  0  0  0  0  0  0  0  0  0
   -2.6866    1.8041   -3.0838 H   0  0  0  0  0  0  0  0  0  0  0  0
   -3.0116    0.2020   -2.4955 H   0  0  0  0  0  0  0  0  0  0  0  0
    3.5422   -2.3743    0.8652 H   0  0  0  0  0  0  0  0  0  0  0  0
    2.0052   -2.7917    0.1247 H   0  0  0  0  0  0  0  0  0  0  0  0
   -4.5151    2.0903    1.3120 H   0  0  0  0  0  0  0  0  0  0  0  0
   -3.2856    1.5951    2.4686 H   0  0  0  0  0  0  0  0  0  0  0  0
   -3.0293    3.0380    1.4713 H   0  0  0  0  0  0  0  0  0  0  0  0
   -2.8726   -3.2437   -0.9612 H   0  0  0  0  0  0  0  0  0  0  0  0
   -3.8603   -2.8195    0.4356 H   0  0  0  0  0  0  0  0  0  0  0  0
   -1.9041   -2.7093    1.8695 H   0  0  0  0  0  0  0  0  0  0  0  0
   -1.3502   -3.9363    0.7053 H   0  0  0  0  0  0  0  0  0  0  0  0
    2.9295    2.8631    0.9077 H   0  0  0  0  0  0  0  0  0  0  0  0
    5.6276    1.1815   -0.5052 H   0  0  0  0  0  0  0  0  0  0  0  0
    5.5440   -0.3312   -1.5767 H   0  0  0  0  0  0  0  0  0  0  0  0
  1  9  1  0  0  0  0
  1 24  1  0  0  0  0
  2 16  1  0  0  0  0
  2 56  1  0  0  0  0
  3  9  1  0  0  0  0
  3 17  1  0  0  0  0
  3 23  1  0  0  0  0
  4  5  1  0  0  0  0
  4  6  1  0  0  0  0
  4  9  1  0  0  0  0
  4 12  1  0  0  0  0
  5  7  1  0  0  0  0
  5 13  1  0  0  0  0
  5 26  1  0  0  0  0
  6  8  1  0  0  0  0
  6 10  1  0  0  0  0
  6 27  1  0  0  0  0
  7 11  1  0  0  0  0
  7 14  1  0  0  0  0
  7 16  1  0  0  0  0
  8 17  1  0  0  0  0
  8 18  1  0  0  0  0
  8 22  1  0  0  0  0
  9 28  1  0  0  0  0
 10 11  1  0  0  0  0
 10 29  1  0  0  0  0
 10 30  1  0  0  0  0
 11 31  1  0  0  0  0
 11 32  1  0  0  0  0
 12 19  1  0  0  0  0
 12 33  1  0  0  0  0
 12 34  1  0  0  0  0
 13 15  1  0  0  0  0
 13 35  1  0  0  0  0
 13 36  1  0  0  0  0
 14 20  1  0  0  0  0
 14 37  1  0  0  0  0
 14 38  1  0  0  0  0
 15 20  1  0  0  0  0
 15 21  1  0  0  0  0
 15 39  1  0  0  0  0
 16 21  1  0  0  0  0
 16 40  1  0  0  0  0
 17 41  1  0  0  0  0
 17 42  1  0  0  0  0
 18 19  1  0  0  0  0
 18 43  1  0  0  0  0
 18 44  1  0  0  0  0
 19 45  1  0  0  0  0
 19 46  1  0  0  0  0
 20 47  1  0  0  0  0
 20 48  1  0  0  0  0
 21 25  2  0  0  0  0
 22 49  1  0  0  0  0
 22 50  1  0  0  0  0
 22 51  1  0  0  0  0
 23 24  1  0  0  0  0
 23 52  1  0  0  0  0
 23 53  1  0  0  0  0
 24 54  1  0  0  0  0
 24 55  1  0  0  0  0
 25 57  1  0  0  0  0
 25 58  1  0  0  0  0
M  END
> <PUBCHEM_COMPOUND_CID>
441709

> <PUBCHEM_CONFORMER_RMSD>
0.6

> <PUBCHEM_CONFORMER_DIVERSEORDER>
1

> <PUBCHEM_MMFF94_PARTIAL_CHARGES>
14
1 -0.56
15 0.14
16 0.42
17 0.27
2 -0.68
21 -0.28
23 0.27
24 0.28
25 -0.3
3 -0.81
56 0.4
57 0.15
58 0.15
9 0.55

> <PUBCHEM_EFFECTIVE_ROTOR_COUNT>
2.6

> <PUBCHEM_PHARMACOPHORE_FEATURES>
9
1 1 acceptor
1 2 acceptor
1 2 donor
1 3 cation
5 1 3 9 23 24 rings
6 3 4 6 8 9 17 rings
6 4 5 6 7 10 11 rings
6 4 6 8 12 18 19 rings
8 5 7 13 14 15 16 20 21 rings

> <PUBCHEM_HEAVY_ATOM_COUNT>
25

> <PUBCHEM_ATOM_DEF_STEREO_COUNT>
7

> <PUBCHEM_ATOM_UDEF_STEREO_COUNT>
1

> <PUBCHEM_BOND_DEF_STEREO_COUNT>
0

> <PUBCHEM_BOND_UDEF_STEREO_COUNT>
0

> <PUBCHEM_ISOTOPIC_ATOM_COUNT>
0

> <PUBCHEM_COMPONENT_COUNT>
1

> <PUBCHEM_CACTVS_TAUTO_COUNT>
1

> <PUBCHEM_CONFORMER_ID>
0006BD6D00000001

> <PUBCHEM_MMFF94_ENERGY>
107.7333

> <PUBCHEM_FEATURE_SELFOVERLAP>
47.616

> <PUBCHEM_SHAPE_FINGERPRINT>
10165383 225 18264219027739963597
10366900 7 18201152268967829183
10863032 1 18341895177640216146
10948715 1 18343309145166719488
11370993 70 18336824199905983079
11578080 2 18115286964864087821
12011746 2 18272370888889919823
12173636 292 18338797793318915685
12403814 3 17894918403808169973
12592029 89 17753880624493400355
12633257 1 18337384955410639200
12788726 201 17273144475179709080
128993 33 17968373442380101905
13140716 1 18343298137255334338
13224815 77 17489576883702762188
13583140 156 17676210143417313457
14223421 5 18268142243909283432
14787075 74 17544751687270893438
15309172 13 18188776015998869997
15420108 30 14892721343151153448
16945 1 18195801873566974851
17357779 13 18124017190768796343
18186145 218 18340486651647528556
18981168 100 18263060202407991008
20510252 161 18339077202648309747
20645476 183 18271815562034308049
20691752 17 17895750837137208475
21033648 29 18262226712438922741
22907989 373 18335409206098568013
23419403 2 17986099936431370297
23493267 7 18201725028684278088
23559900 14 18342173418490897408
238 59 17558520707818111756
2748010 2 17843946264230551776
34934 24 16805597015254284197
4340502 62 18126021369075970825
469060 322 17531539800948649555
5104073 3 18413106174127557202
5845 1 17693072473005738263
6287921 2 18044388346687371820
633830 44 18057327171784134797
6443956 14 17474945910343344039
70251023 43 17700399557963048415
74978 22 18338791230471341052
81228 2 18188208835624234883
9709674 26 18201729448300967606
9981440 41 16766990030961393473

> <PUBCHEM_SHAPE_MULTIPOLES>
497.77
6.94
2.54
1.8
4.35
1.44
0.21
-1.22
0.92
-1.63
-0.52
-0.56
-0.68
0.22

> <PUBCHEM_SHAPE_SELFOVERLAP>
1095.473

> <PUBCHEM_SHAPE_VOLUME>
258.8

> <PUBCHEM_COORDINATE_TYPE>
2
5
10

$$$$
