165581
  -OEChem-08242016123D

 32 32  0     0  0  0  0  0  0999 V2000
   -3.2287    2.0124    0.0630 O   0  0  0  0  0  0  0  0  0  0  0  0
   -4.4420   -0.4593    0.4407 O   0  0  0  0  0  0  0  0  0  0  0  0
    3.4158    0.0872    0.1679 N   0  3  0  0  0  0  0  0  0  0  0  0
    1.9519   -0.0508    0.5600 C   0  0  0  0  0  0  0  0  0  0  0  0
    1.0791   -0.1570   -0.6859 C   0  0  0  0  0  0  0  0  0  0  0  0
    4.2701    0.1886    1.4234 C   0  0  0  0  0  0  0  0  0  0  0  0
    3.8419   -1.1312   -0.6384 C   0  0  0  0  0  0  0  0  0  0  0  0
    3.5997    1.3420   -0.6734 C   0  0  0  0  0  0  0  0  0  0  0  0
   -0.3973   -0.2347   -0.3850 C   0  0  0  0  0  0  0  0  0  0  0  0
   -1.1362    0.9352   -0.3006 C   0  0  0  0  0  0  0  0  0  0  0  0
   -0.9892   -1.4742   -0.1982 C   0  0  0  0  0  0  0  0  0  0  0  0
   -2.5010    0.8638   -0.0222 C   0  0  0  0  0  0  0  0  0  0  0  0
   -2.3541   -1.5455    0.0803 C   0  0  0  0  0  0  0  0  0  0  0  0
   -3.1100   -0.3765    0.1683 C   0  0  0  0  0  0  0  0  0  0  0  0
    1.6854    0.8264    1.1623 H   0  0  0  0  0  0  0  0  0  0  0  0
    1.8566   -0.9426    1.1917 H   0  0  0  0  0  0  0  0  0  0  0  0
    1.2166    0.6948   -1.3597 H   0  0  0  0  0  0  0  0  0  0  0  0
    1.3306   -1.0444   -1.2773 H   0  0  0  0  0  0  0  0  0  0  0  0
    4.1235   -0.7199    2.0150 H   0  0  0  0  0  0  0  0  0  0  0  0
    5.3189    0.2849    1.1272 H   0  0  0  0  0  0  0  0  0  0  0  0
    3.9510    1.0700    1.9876 H   0  0  0  0  0  0  0  0  0  0  0  0
    3.3913   -1.1021   -1.6334 H   0  0  0  0  0  0  0  0  0  0  0  0
    4.9309   -1.0992   -0.7478 H   0  0  0  0  0  0  0  0  0  0  0  0
    3.5487   -2.0336   -0.0938 H   0  0  0  0  0  0  0  0  0  0  0  0
    3.1899    1.1908   -1.6748 H   0  0  0  0  0  0  0  0  0  0  0  0
    3.1164    2.1816   -0.1652 H   0  0  0  0  0  0  0  0  0  0  0  0
    4.6742    1.5318   -0.7648 H   0  0  0  0  0  0  0  0  0  0  0  0
   -0.6576    1.9001   -0.4466 H   0  0  0  0  0  0  0  0  0  0  0  0
   -0.4086   -2.3901   -0.2619 H   0  0  0  0  0  0  0  0  0  0  0  0
   -2.8225   -2.5147    0.2283 H   0  0  0  0  0  0  0  0  0  0  0  0
   -2.6422    2.7718   -0.0964 H   0  0  0  0  0  0  0  0  0  0  0  0
   -4.8060    0.4428    0.4643 H   0  0  0  0  0  0  0  0  0  0  0  0
  1 12  1  0  0  0  0
  1 31  1  0  0  0  0
  2 14  1  0  0  0  0
  2 32  1  0  0  0  0
  3  4  1  0  0  0  0
  3  6  1  0  0  0  0
  3  7  1  0  0  0  0
  3  8  1  0  0  0  0
  4  5  1  0  0  0  0
  4 15  1  0  0  0  0
  4 16  1  0  0  0  0
  5  9  1  0  0  0  0
  5 17  1  0  0  0  0
  5 18  1  0  0  0  0
  6 19  1  0  0  0  0
  6 20  1  0  0  0  0
  6 21  1  0  0  0  0
  7 22  1  0  0  0  0
  7 23  1  0  0  0  0
  7 24  1  0  0  0  0
  8 25  1  0  0  0  0
  8 26  1  0  0  0  0
  8 27  1  0  0  0  0
  9 10  2  0  0  0  0
  9 11  1  0  0  0  0
 10 12  1  0  0  0  0
 10 28  1  0  0  0  0
 11 13  2  0  0  0  0
 11 29  1  0  0  0  0
 12 14  2  0  0  0  0
 13 14  1  0  0  0  0
 13 30  1  0  0  0  0
M  CHG  1   3   1
M  END
> <PUBCHEM_COMPOUND_CID>
165581

> <PUBCHEM_CONFORMER_RMSD>
0.6

> <PUBCHEM_CONFORMER_DIVERSEORDER>
2
1

> <PUBCHEM_MMFF94_PARTIAL_CHARGES>
19
1 -0.53
10 -0.15
11 -0.15
12 0.08
13 -0.15
14 0.08
2 -0.53
28 0.15
29 0.15
3 -1.01
30 0.15
31 0.45
32 0.45
4 0.5
5 0.14
6 0.5
7 0.5
8 0.5
9 -0.14

> <PUBCHEM_EFFECTIVE_ROTOR_COUNT>
3

> <PUBCHEM_PHARMACOPHORE_FEATURES>
4
1 1 donor
1 2 donor
1 3 cation
6 9 10 11 12 13 14 rings

> <PUBCHEM_HEAVY_ATOM_COUNT>
14

> <PUBCHEM_ATOM_DEF_STEREO_COUNT>
0

> <PUBCHEM_ATOM_UDEF_STEREO_COUNT>
0

> <PUBCHEM_BOND_DEF_STEREO_COUNT>
0

> <PUBCHEM_BOND_UDEF_STEREO_COUNT>
0

> <PUBCHEM_ISOTOPIC_ATOM_COUNT>
0

> <PUBCHEM_COMPONENT_COUNT>
1

> <PUBCHEM_CACTVS_TAUTO_COUNT>
18

> <PUBCHEM_CONFORMER_ID>
000286CD00000002

> <PUBCHEM_MMFF94_ENERGY>
43.7417

> <PUBCHEM_FEATURE_SELFOVERLAP>
20.301

> <PUBCHEM_SHAPE_FINGERPRINT>
10608611 8 18343580733350364596
11132069 177 18411696590828933764
12119455 92 17274822428770979639
12251169 10 18335979843832334924
12507560 40 18272649030924561934
12932764 1 17489867176421405102
13024252 1 13695864823130308159
13581323 91 18408887351504959039
13675066 3 18273209786102280722
13897977 58 18335709393841754253
14144814 61 18186517700624753742
14289901 80 18410576218872198258
14325111 11 18411139117090690260
15219456 202 18130510734179233478
15669948 3 18339642368514751070
18186145 218 16343984719464560148
190213 19 18186799188460044526
19050596 39 18261950851358085258
19422 9 18113337522500263282
200 152 14707202227622335890
20279233 1 17632292393734948070
20510252 161 18343305838421839809
20528008 55 18342736334084469999
20645464 45 18059861649249509807
20645477 56 18201432605867610824
20645477 70 16558757789196113190
2255824 54 17313388963489060316
22854114 59 17704071823735889730
23048698 100 17458344164978261012
23402539 116 18340760516654302135
23557571 272 18200889416911214020
23559900 14 18270122301754308110
2748010 2 18121515561571360631
3248919 1 18337380621904721022
42 15 18335140882069240746
43471831 8 18187643553314096803
449060 50 18201996664334155040
474 4 16952265450161782060
5104073 3 18410575063499479698
5374978 207 18335419109966143304
573450 72 18188197749965224738
69090 78 18060415828800929383
77492 1 17603590746171338302
77779 3 18409733967358931406
90316 7 17895187762334544572

> <PUBCHEM_SHAPE_MULTIPOLES>
271.39
8.57
1.55
0.91
3.15
0.19
0.15
0.64
1.51
-0.8
-0.16
0.91
0.01
0.1

> <PUBCHEM_SHAPE_SELFOVERLAP>
547.14

> <PUBCHEM_SHAPE_VOLUME>
161.8

> <PUBCHEM_COORDINATE_TYPE>
2
5
10

$$$$
