101671037
  -OEChem-08242015583D

 73 78  0     1  0  0  0  0  0999 V2000
    1.6542    2.8653   -0.0359 O   0  0  0  0  0  0  0  0  0  0  0  0
   -1.8271    2.6260    0.5101 O   0  0  0  0  0  0  0  0  0  0  0  0
   -0.8525   -3.0016    0.3456 O   0  0  0  0  0  0  0  0  0  0  0  0
    4.1875   -1.4993   -1.6466 O   0  0  0  0  0  0  0  0  0  0  0  0
    3.7998    1.5526   -1.7868 O   0  0  0  0  0  0  0  0  0  0  0  0
    2.5181    0.8643    2.2534 O   0  0  0  0  0  0  0  0  0  0  0  0
    4.7998   -0.2954    0.6214 O   0  0  0  0  0  0  0  0  0  0  0  0
   -3.7842   -2.3156    0.7994 O   0  0  0  0  0  0  0  0  0  0  0  0
   -4.2260    1.2630   -1.3075 O   0  0  0  0  0  0  0  0  0  0  0  0
   -1.1857   -0.6983    1.9060 N   0  0  2  0  0  0  0  0  0  0  0  0
   -0.5495   -0.6806   -0.5165 C   0  0  1  0  0  0  0  0  0  0  0  0
   -1.6929    0.3992   -0.6664 C   0  0  2  0  0  0  0  0  0  0  0  0
    0.6897   -0.4481   -1.4716 C   0  0  1  0  0  0  0  0  0  0  0  0
   -0.1304   -0.3338    0.9356 C   0  0  1  0  0  0  0  0  0  0  0  0
    0.1412    1.1883    0.7733 C   0  0  1  0  0  0  0  0  0  0  0  0
    1.4624    0.8929   -1.3883 C   0  0  1  0  0  0  0  0  0  0  0  0
    1.5081    1.4310    0.0676 C   0  0  1  0  0  0  0  0  0  0  0  0
   -1.0010    1.6952   -0.1597 C   0  0  2  0  0  0  0  0  0  0  0  0
   -2.9251   -0.0544    0.2020 C   0  0  2  0  0  0  0  0  0  0  0  0
   -1.0585   -2.1372   -0.7674 C   0  0  2  0  0  0  0  0  0  0  0  0
    1.8165   -1.5026   -1.2851 C   0  0  0  0  0  0  0  0  0  0  0  0
    3.1320   -0.7210   -1.1066 C   0  0  2  0  0  0  0  0  0  0  0  0
    2.8469    0.5212   -1.9406 C   0  0  2  0  0  0  0  0  0  0  0  0
    2.7636    0.9467    0.8478 C   0  0  2  0  0  0  0  0  0  0  0  0
   -2.4811   -0.0480    1.6969 C   0  0  0  0  0  0  0  0  0  0  0  0
   -3.4502   -1.4523   -0.2859 C   0  0  1  0  0  0  0  0  0  0  0  0
    3.3864   -0.3864    0.3813 C   0  0  2  0  0  0  0  0  0  0  0  0
   -2.5082   -2.1976   -1.2191 C   0  0  0  0  0  0  0  0  0  0  0  0
   -4.1324    0.9049    0.0515 C   0  0  0  0  0  0  0  0  0  0  0  0
   -0.7376   -0.5543    3.2886 C   0  0  0  0  0  0  0  0  0  0  0  0
   -1.2440    3.9248    0.5425 C   0  0  0  0  0  0  0  0  0  0  0  0
   -0.7054   -4.3518   -0.0679 C   0  0  0  0  0  0  0  0  0  0  0  0
    5.1002   -0.5480    1.9816 C   0  0  0  0  0  0  0  0  0  0  0  0
   -5.3145    2.1509   -1.5527 C   0  0  0  0  0  0  0  0  0  0  0  0
   -1.9679    0.5086   -1.7220 H   0  0  0  0  0  0  0  0  0  0  0  0
    0.3213   -0.5412   -2.5043 H   0  0  0  0  0  0  0  0  0  0  0  0
    0.7691   -0.8858    1.2142 H   0  0  0  0  0  0  0  0  0  0  0  0
    0.1218    1.7113    1.7352 H   0  0  0  0  0  0  0  0  0  0  0  0
    1.0311    1.6408   -2.0638 H   0  0  0  0  0  0  0  0  0  0  0  0
   -0.6311    2.2062   -1.0524 H   0  0  0  0  0  0  0  0  0  0  0  0
   -0.4966   -2.5494   -1.6159 H   0  0  0  0  0  0  0  0  0  0  0  0
    1.6481   -2.1925   -0.4528 H   0  0  0  0  0  0  0  0  0  0  0  0
    1.8617   -2.1343   -2.1828 H   0  0  0  0  0  0  0  0  0  0  0  0
    2.7983    0.2765   -3.0094 H   0  0  0  0  0  0  0  0  0  0  0  0
    3.5405    1.7193    0.7592 H   0  0  0  0  0  0  0  0  0  0  0  0
   -2.4421    0.9758    2.0860 H   0  0  0  0  0  0  0  0  0  0  0  0
   -3.2432   -0.5420    2.3127 H   0  0  0  0  0  0  0  0  0  0  0  0
   -4.3847   -1.3245   -0.8473 H   0  0  0  0  0  0  0  0  0  0  0  0
    3.0057   -1.2201    0.9848 H   0  0  0  0  0  0  0  0  0  0  0  0
   -2.5746   -1.7382   -2.2146 H   0  0  0  0  0  0  0  0  0  0  0  0
   -2.8495   -3.2306   -1.3386 H   0  0  0  0  0  0  0  0  0  0  0  0
   -4.0196    1.8088    0.6578 H   0  0  0  0  0  0  0  0  0  0  0  0
   -5.0603    0.4239    0.3884 H   0  0  0  0  0  0  0  0  0  0  0  0
    1.7376    3.2208    0.8654 H   0  0  0  0  0  0  0  0  0  0  0  0
   -0.5519    0.4891    3.5638 H   0  0  0  0  0  0  0  0  0  0  0  0
    0.1817   -1.1250    3.4603 H   0  0  0  0  0  0  0  0  0  0  0  0
   -1.4871   -0.9597    3.9777 H   0  0  0  0  0  0  0  0  0  0  0  0
    4.0209   -1.6292   -2.5956 H   0  0  0  0  0  0  0  0  0  0  0  0
    3.4556    2.3384   -2.2444 H   0  0  0  0  0  0  0  0  0  0  0  0
    2.2628    1.7515    2.5584 H   0  0  0  0  0  0  0  0  0  0  0  0
   -4.1870   -3.1197    0.4299 H   0  0  0  0  0  0  0  0  0  0  0  0
   -1.9933    4.6148    0.9413 H   0  0  0  0  0  0  0  0  0  0  0  0
   -0.9685    4.2684   -0.4593 H   0  0  0  0  0  0  0  0  0  0  0  0
   -0.3833    3.9496    1.2142 H   0  0  0  0  0  0  0  0  0  0  0  0
   -0.5031   -4.9528    0.8236 H   0  0  0  0  0  0  0  0  0  0  0  0
    0.1462   -4.4648   -0.7464 H   0  0  0  0  0  0  0  0  0  0  0  0
   -1.6149   -4.7422   -0.5300 H   0  0  0  0  0  0  0  0  0  0  0  0
    4.6247   -1.4629    2.3491 H   0  0  0  0  0  0  0  0  0  0  0  0
    4.8436    0.3054    2.6132 H   0  0  0  0  0  0  0  0  0  0  0  0
    6.1831   -0.6864    2.0599 H   0  0  0  0  0  0  0  0  0  0  0  0
   -5.3328    2.3833   -2.6207 H   0  0  0  0  0  0  0  0  0  0  0  0
   -5.1805    3.0816   -0.9931 H   0  0  0  0  0  0  0  0  0  0  0  0
   -6.2622    1.6771   -1.2796 H   0  0  0  0  0  0  0  0  0  0  0  0
  1 17  1  0  0  0  0
  1 54  1  0  0  0  0
  2 18  1  0  0  0  0
  2 31  1  0  0  0  0
  3 20  1  0  0  0  0
  3 32  1  0  0  0  0
  4 22  1  0  0  0  0
  4 58  1  0  0  0  0
  5 23  1  0  0  0  0
  5 59  1  0  0  0  0
  6 24  1  0  0  0  0
  6 60  1  0  0  0  0
  7 27  1  0  0  0  0
  7 33  1  0  0  0  0
  8 26  1  0  0  0  0
  8 61  1  0  0  0  0
  9 29  1  0  0  0  0
  9 34  1  0  0  0  0
 10 14  1  0  0  0  0
 10 25  1  0  0  0  0
 10 30  1  0  0  0  0
 11 12  1  0  0  0  0
 11 13  1  0  0  0  0
 11 14  1  0  0  0  0
 11 20  1  0  0  0  0
 12 18  1  0  0  0  0
 12 19  1  0  0  0  0
 12 35  1  0  0  0  0
 13 16  1  0  0  0  0
 13 21  1  0  0  0  0
 13 36  1  0  0  0  0
 14 15  1  0  0  0  0
 14 37  1  0  0  0  0
 15 17  1  0  0  0  0
 15 18  1  0  0  0  0
 15 38  1  0  0  0  0
 16 17  1  0  0  0  0
 16 23  1  0  0  0  0
 16 39  1  0  0  0  0
 17 24  1  0  0  0  0
 18 40  1  0  0  0  0
 19 25  1  0  0  0  0
 19 26  1  0  0  0  0
 19 29  1  0  0  0  0
 20 28  1  0  0  0  0
 20 41  1  0  0  0  0
 21 22  1  0  0  0  0
 21 42  1  0  0  0  0
 21 43  1  0  0  0  0
 22 23  1  0  0  0  0
 22 27  1  0  0  0  0
 23 44  1  0  0  0  0
 24 27  1  0  0  0  0
 24 45  1  0  0  0  0
 25 46  1  0  0  0  0
 25 47  1  0  0  0  0
 26 28  1  0  0  0  0
 26 48  1  0  0  0  0
 27 49  1  0  0  0  0
 28 50  1  0  0  0  0
 28 51  1  0  0  0  0
 29 52  1  0  0  0  0
 29 53  1  0  0  0  0
 30 55  1  0  0  0  0
 30 56  1  0  0  0  0
 30 57  1  0  0  0  0
 31 62  1  0  0  0  0
 31 63  1  0  0  0  0
 31 64  1  0  0  0  0
 32 65  1  0  0  0  0
 32 66  1  0  0  0  0
 32 67  1  0  0  0  0
 33 68  1  0  0  0  0
 33 69  1  0  0  0  0
 33 70  1  0  0  0  0
 34 71  1  0  0  0  0
 34 72  1  0  0  0  0
 34 73  1  0  0  0  0
M  END
> <PUBCHEM_COMPOUND_CID>
101671037

> <PUBCHEM_CONFORMER_RMSD>
1

> <PUBCHEM_CONFORMER_DIVERSEORDER>
1

> <PUBCHEM_MMFF94_PARTIAL_CHARGES>
31
1 -0.68
10 -0.81
14 0.27
17 0.28
18 0.28
2 -0.56
20 0.28
22 0.28
23 0.28
24 0.28
25 0.27
26 0.28
27 0.28
29 0.28
3 -0.56
30 0.27
31 0.28
32 0.28
33 0.28
34 0.28
4 -0.68
5 -0.68
54 0.4
58 0.4
59 0.4
6 -0.68
60 0.4
61 0.4
7 -0.56
8 -0.68
9 -0.56

> <PUBCHEM_EFFECTIVE_ROTOR_COUNT>
7

> <PUBCHEM_PHARMACOPHORE_FEATURES>
19
1 1 acceptor
1 1 donor
1 10 cation
1 2 acceptor
1 3 acceptor
1 4 acceptor
1 4 donor
1 5 acceptor
1 5 donor
1 6 acceptor
1 6 donor
1 7 acceptor
1 8 acceptor
1 8 donor
1 9 acceptor
6 11 12 19 20 26 28 rings
8 10 11 12 14 15 18 19 25 rings
8 11 12 13 14 15 16 17 18 rings
8 13 16 17 21 22 23 24 27 rings

> <PUBCHEM_HEAVY_ATOM_COUNT>
34

> <PUBCHEM_ATOM_DEF_STEREO_COUNT>
15

> <PUBCHEM_ATOM_UDEF_STEREO_COUNT>
0

> <PUBCHEM_BOND_DEF_STEREO_COUNT>
0

> <PUBCHEM_BOND_UDEF_STEREO_COUNT>
0

> <PUBCHEM_ISOTOPIC_ATOM_COUNT>
0

> <PUBCHEM_COMPONENT_COUNT>
1

> <PUBCHEM_CACTVS_TAUTO_COUNT>
1

> <PUBCHEM_CONFORMER_ID>
060F607D00000001

> <PUBCHEM_MMFF94_ENERGY>
207.4143

> <PUBCHEM_FEATURE_SELFOVERLAP>
97.82

> <PUBCHEM_SHAPE_FINGERPRINT>
10863032 1 17988644141950334245
10948715 1 17749394728710609679
11007060 377 17473558318601584156
11578080 2 18059010708680449305
12156800 1 17044788056025946821
12422481 6 17606382268592005002
12553582 1 18270696375166344484
12633257 1 18201709661797741114
12788726 201 18336557117253800976
13140716 1 18270964677341188496
13224815 77 16916799525327501710
14223421 5 17699576045470824938
15664445 248 16821933920082057311
16752209 62 18268158564938177484
16945 1 18271818916298141196
17349148 13 17131843061607135415
18981168 100 9654206275311475914
20691752 17 18343867723212646531
20715895 44 18190454957549320533
21421861 104 17259354782391081075
22182313 1 18200870781633366975
23419403 2 16986285417829716643
23559900 14 18272941501165367462
2748010 2 17843973777796045388
35225 105 17895775008912593883

> <PUBCHEM_SHAPE_MULTIPOLES>
641.9
7.97
3.49
2.16
1.52
0.81
-1.07
-1.2
1.17
-2.45
0.24
0.93
0.06
0.62

> <PUBCHEM_SHAPE_SELFOVERLAP>
1406.159

> <PUBCHEM_SHAPE_VOLUME>
340.7

> <PUBCHEM_COORDINATE_TYPE>
2
5
10

$$$$
