101552718
  -OEChem-08242016003D

 70 75  0     1  0  0  0  0  0999 V2000
    1.8128    2.8153   -0.2044 O   0  0  0  0  0  0  0  0  0  0  0  0
   -1.6297    2.6750    0.2120 O   0  0  0  0  0  0  0  0  0  0  0  0
   -0.0796   -3.1620    0.2498 O   0  0  0  0  0  0  0  0  0  0  0  0
    4.4628   -1.6672   -1.1307 O   0  0  0  0  0  0  0  0  0  0  0  0
    4.0193    1.3167   -1.7122 O   0  0  0  0  0  0  0  0  0  0  0  0
    2.5446    1.1198    2.3513 O   0  0  0  0  0  0  0  0  0  0  0  0
   -4.5247   -1.7041    0.4607 O   0  0  0  0  0  0  0  0  0  0  0  0
    4.9857   -0.1173    0.9253 O   0  0  0  0  0  0  0  0  0  0  0  0
   -4.1979    0.8204   -1.6523 O   0  0  0  0  0  0  0  0  0  0  0  0
   -1.1833   -0.4133    2.0256 N   0  0  2  0  0  0  0  0  0  0  0  0
   -0.3858   -0.7651   -0.3178 C   0  0  1  0  0  0  0  0  0  0  0  0
   -1.4835    0.3102   -0.6956 C   0  0  2  0  0  0  0  0  0  0  0  0
    0.9279   -0.6841   -1.2151 C   0  0  1  0  0  0  0  0  0  0  0  0
   -0.0514   -0.2225    1.0928 C   0  0  1  0  0  0  0  0  0  0  0  0
    0.2788    1.2584    0.7377 C   0  0  1  0  0  0  0  0  0  0  0  0
    1.6825    0.6680   -1.3011 C   0  0  1  0  0  0  0  0  0  0  0  0
    1.6754    1.4001    0.0674 C   0  0  1  0  0  0  0  0  0  0  0  0
   -0.8006    1.6562   -0.3111 C   0  0  2  0  0  0  0  0  0  0  0  0
   -2.7965    0.0341    0.1158 C   0  0  2  0  0  0  0  0  0  0  0  0
   -0.9379   -2.2285   -0.4011 C   0  0  2  0  0  0  0  0  0  0  0  0
    2.0639   -1.6689   -0.8217 C   0  0  0  0  0  0  0  0  0  0  0  0
    3.3679   -0.8506   -0.7478 C   0  0  2  0  0  0  0  0  0  0  0  0
    3.0888    0.2546   -1.7540 C   0  0  2  0  0  0  0  0  0  0  0  0
    2.8915    1.0430    0.9664 C   0  0  2  0  0  0  0  0  0  0  0  0
   -2.4652    0.1964    1.6317 C   0  0  0  0  0  0  0  0  0  0  0  0
   -3.3045   -1.3993   -0.2166 C   0  0  1  0  0  0  0  0  0  0  0  0
    3.5824   -0.3072    0.6842 C   0  0  2  0  0  0  0  0  0  0  0  0
   -2.3212   -2.4764    0.1703 C   0  0  0  0  0  0  0  0  0  0  0  0
   -3.9453    0.9971   -0.2781 C   0  0  0  0  0  0  0  0  0  0  0  0
   -0.8351   -0.0723    3.4016 C   0  0  0  0  0  0  0  0  0  0  0  0
   -1.0165    3.9570    0.1187 C   0  0  0  0  0  0  0  0  0  0  0  0
   -0.1792   -4.4517   -0.3353 C   0  0  0  0  0  0  0  0  0  0  0  0
   -5.2465    1.6680   -2.1164 C   0  0  0  0  0  0  0  0  0  0  0  0
   -1.6844    0.2772   -1.7733 H   0  0  0  0  0  0  0  0  0  0  0  0
    0.6231   -0.9399   -2.2409 H   0  0  0  0  0  0  0  0  0  0  0  0
    0.8148   -0.7441    1.5084 H   0  0  0  0  0  0  0  0  0  0  0  0
    0.2274    1.9032    1.6218 H   0  0  0  0  0  0  0  0  0  0  0  0
    1.2660    1.3070   -2.0880 H   0  0  0  0  0  0  0  0  0  0  0  0
   -0.3862    2.0542   -1.2404 H   0  0  0  0  0  0  0  0  0  0  0  0
   -0.9885   -2.4635   -1.4748 H   0  0  0  0  0  0  0  0  0  0  0  0
    1.9154   -2.1755    0.1320 H   0  0  0  0  0  0  0  0  0  0  0  0
    2.1363   -2.4589   -1.5804 H   0  0  0  0  0  0  0  0  0  0  0  0
    3.0811   -0.1379   -2.7787 H   0  0  0  0  0  0  0  0  0  0  0  0
    3.6455    1.8326    0.8393 H   0  0  0  0  0  0  0  0  0  0  0  0
   -2.4709    1.2561    1.9110 H   0  0  0  0  0  0  0  0  0  0  0  0
   -3.2677   -0.2585    2.2266 H   0  0  0  0  0  0  0  0  0  0  0  0
   -3.5044   -1.4853   -1.2922 H   0  0  0  0  0  0  0  0  0  0  0  0
    3.2760   -1.0605    1.4195 H   0  0  0  0  0  0  0  0  0  0  0  0
   -2.7125   -3.4371   -0.1897 H   0  0  0  0  0  0  0  0  0  0  0  0
   -2.2894   -2.6183    1.2583 H   0  0  0  0  0  0  0  0  0  0  0  0
   -3.7281    2.0457   -0.0742 H   0  0  0  0  0  0  0  0  0  0  0  0
   -4.8516    0.7602    0.2939 H   0  0  0  0  0  0  0  0  0  0  0  0
    1.8794    3.2766    0.6494 H   0  0  0  0  0  0  0  0  0  0  0  0
    0.0613   -0.6145    3.7221 H   0  0  0  0  0  0  0  0  0  0  0  0
   -1.6385   -0.3705    4.0845 H   0  0  0  0  0  0  0  0  0  0  0  0
   -0.6561    0.9995    3.5356 H   0  0  0  0  0  0  0  0  0  0  0  0
    4.3178   -1.9634   -2.0453 H   0  0  0  0  0  0  0  0  0  0  0  0
    3.6798    2.0247   -2.2857 H   0  0  0  0  0  0  0  0  0  0  0  0
    3.3479    0.9425    2.8692 H   0  0  0  0  0  0  0  0  0  0  0  0
   -4.8245   -2.5769    0.1542 H   0  0  0  0  0  0  0  0  0  0  0  0
    5.0909    0.1568    1.8523 H   0  0  0  0  0  0  0  0  0  0  0  0
   -0.6635    4.1669   -0.8955 H   0  0  0  0  0  0  0  0  0  0  0  0
   -0.2078    4.0568    0.8455 H   0  0  0  0  0  0  0  0  0  0  0  0
   -1.7750    4.7042    0.3707 H   0  0  0  0  0  0  0  0  0  0  0  0
    0.5788   -5.0878    0.1314 H   0  0  0  0  0  0  0  0  0  0  0  0
    0.0289   -4.4177   -1.4095 H   0  0  0  0  0  0  0  0  0  0  0  0
   -1.1530   -4.9101   -0.1476 H   0  0  0  0  0  0  0  0  0  0  0  0
   -5.3952    1.4763   -3.1823 H   0  0  0  0  0  0  0  0  0  0  0  0
   -4.9740    2.7194   -1.9837 H   0  0  0  0  0  0  0  0  0  0  0  0
   -6.1782    1.4478   -1.5865 H   0  0  0  0  0  0  0  0  0  0  0  0
  1 17  1  0  0  0  0
  1 53  1  0  0  0  0
  2 18  1  0  0  0  0
  2 31  1  0  0  0  0
  3 20  1  0  0  0  0
  3 32  1  0  0  0  0
  4 22  1  0  0  0  0
  4 57  1  0  0  0  0
  5 23  1  0  0  0  0
  5 58  1  0  0  0  0
  6 24  1  0  0  0  0
  6 59  1  0  0  0  0
  7 26  1  0  0  0  0
  7 60  1  0  0  0  0
  8 27  1  0  0  0  0
  8 61  1  0  0  0  0
  9 29  1  0  0  0  0
  9 33  1  0  0  0  0
 10 14  1  0  0  0  0
 10 25  1  0  0  0  0
 10 30  1  0  0  0  0
 11 12  1  0  0  0  0
 11 13  1  0  0  0  0
 11 14  1  0  0  0  0
 11 20  1  0  0  0  0
 12 18  1  0  0  0  0
 12 19  1  0  0  0  0
 12 34  1  0  0  0  0
 13 16  1  0  0  0  0
 13 21  1  0  0  0  0
 13 35  1  0  0  0  0
 14 15  1  0  0  0  0
 14 36  1  0  0  0  0
 15 17  1  0  0  0  0
 15 18  1  0  0  0  0
 15 37  1  0  0  0  0
 16 17  1  0  0  0  0
 16 23  1  0  0  0  0
 16 38  1  0  0  0  0
 17 24  1  0  0  0  0
 18 39  1  0  0  0  0
 19 25  1  0  0  0  0
 19 26  1  0  0  0  0
 19 29  1  0  0  0  0
 20 28  1  0  0  0  0
 20 40  1  0  0  0  0
 21 22  1  0  0  0  0
 21 41  1  0  0  0  0
 21 42  1  0  0  0  0
 22 23  1  0  0  0  0
 22 27  1  0  0  0  0
 23 43  1  0  0  0  0
 24 27  1  0  0  0  0
 24 44  1  0  0  0  0
 25 45  1  0  0  0  0
 25 46  1  0  0  0  0
 26 28  1  0  0  0  0
 26 47  1  0  0  0  0
 27 48  1  0  0  0  0
 28 49  1  0  0  0  0
 28 50  1  0  0  0  0
 29 51  1  0  0  0  0
 29 52  1  0  0  0  0
 30 54  1  0  0  0  0
 30 55  1  0  0  0  0
 30 56  1  0  0  0  0
 31 62  1  0  0  0  0
 31 63  1  0  0  0  0
 31 64  1  0  0  0  0
 32 65  1  0  0  0  0
 32 66  1  0  0  0  0
 32 67  1  0  0  0  0
 33 68  1  0  0  0  0
 33 69  1  0  0  0  0
 33 70  1  0  0  0  0
M  END
> <PUBCHEM_COMPOUND_CID>
101552718

> <PUBCHEM_CONFORMER_RMSD>
0.8

> <PUBCHEM_CONFORMER_DIVERSEORDER>
1

> <PUBCHEM_MMFF94_PARTIAL_CHARGES>
31
1 -0.68
10 -0.81
14 0.27
17 0.28
18 0.28
2 -0.56
20 0.28
22 0.28
23 0.28
24 0.28
25 0.27
26 0.28
27 0.28
29 0.28
3 -0.56
30 0.27
31 0.28
32 0.28
33 0.28
4 -0.68
5 -0.68
53 0.4
57 0.4
58 0.4
59 0.4
6 -0.68
60 0.4
61 0.4
7 -0.68
8 -0.68
9 -0.56

> <PUBCHEM_EFFECTIVE_ROTOR_COUNT>
6

> <PUBCHEM_PHARMACOPHORE_FEATURES>
20
1 1 acceptor
1 1 donor
1 10 cation
1 2 acceptor
1 3 acceptor
1 4 acceptor
1 4 donor
1 5 acceptor
1 5 donor
1 6 acceptor
1 6 donor
1 7 acceptor
1 7 donor
1 8 acceptor
1 8 donor
1 9 acceptor
6 11 12 19 20 26 28 rings
8 10 11 12 14 15 18 19 25 rings
8 11 12 13 14 15 16 17 18 rings
8 13 16 17 21 22 23 24 27 rings

> <PUBCHEM_HEAVY_ATOM_COUNT>
33

> <PUBCHEM_ATOM_DEF_STEREO_COUNT>
15

> <PUBCHEM_ATOM_UDEF_STEREO_COUNT>
0

> <PUBCHEM_BOND_DEF_STEREO_COUNT>
0

> <PUBCHEM_BOND_UDEF_STEREO_COUNT>
0

> <PUBCHEM_ISOTOPIC_ATOM_COUNT>
0

> <PUBCHEM_COMPONENT_COUNT>
1

> <PUBCHEM_CACTVS_TAUTO_COUNT>
1

> <PUBCHEM_CONFORMER_ID>
060D924E00000001

> <PUBCHEM_MMFF94_ENERGY>
192.618

> <PUBCHEM_FEATURE_SELFOVERLAP>
103.015

> <PUBCHEM_SHAPE_FINGERPRINT>
10863032 1 18342176704029855743
10930396 42 18050532250876623650
10948715 1 17385725764439232687
11370993 70 18340759407851411831
11578080 2 18196934585208235145
12011746 2 18273491257000191652
12553582 1 18269292260247572684
12592029 89 18334021575122190939
12788726 201 18335431183172180744
13140716 1 18341623624259407921
13224815 77 17060069167455067218
13911987 19 18336560381793086533
14223421 5 17696762429654290370
14790565 3 18195827179942505761
16752209 62 18338521815931784620
16945 1 18340780281381667452
17349148 13 17632585954274928030
19591789 44 18411143575605003215
20691752 17 18343866614863086529
20715895 44 18116142273684076493
20775438 99 17264647759085682343
20905425 154 17766283072204024166
22182313 1 18341606079486860611
23419403 2 17415823933150767211
23559900 14 18342181059791404030
2748010 2 18128542758636427326
3380486 145 17759543439720008129
350125 39 18337965592271740711
4340502 62 17630073489407982843
59755656 215 18265324007193417221

> <PUBCHEM_SHAPE_MULTIPOLES>
621.32
7.63
3.56
2.02
0.45
1.32
1.17
-0.92
-2.93
1.21
-0.42
0.19
-0.46
1.09

> <PUBCHEM_SHAPE_SELFOVERLAP>
1367.253

> <PUBCHEM_SHAPE_VOLUME>
328.3

> <PUBCHEM_COORDINATE_TYPE>
2
5
10

$$$$
