14163819
  -OEChem-08242016042D

 71 76  0     1  0  0  0  0  0999 V2000
    8.2565   -0.7026    0.0000 O   0  0  0  0  0  0  0  0  0  0  0  0
    6.1234   -1.9268    0.0000 O   0  0  0  0  0  0  0  0  0  0  0  0
    4.9163    1.8904    0.0000 O   0  0  0  0  0  0  0  0  0  0  0  0
    8.6331    1.4645    0.0000 O   0  0  0  0  0  0  0  0  0  0  0  0
    9.0456   -0.2613    0.0000 O   0  0  0  0  0  0  0  0  0  0  0  0
    9.0340    2.3483    0.0000 O   0  0  0  0  0  0  0  0  0  0  0  0
    4.0503   -2.3448    0.0000 O   0  0  0  0  0  0  0  0  0  0  0  0
    3.7210    0.0613    0.0000 N   0  0  3  0  0  0  0  0  0  0  0  0
    5.6676    0.4566    0.0000 C   0  0  3  0  0  0  0  0  0  0  0  0
    5.6676   -0.4110    0.0000 C   0  0  3  0  0  0  0  0  0  0  0  0
    6.3459    0.9975    0.0000 C   0  0  3  0  0  0  0  0  0  0  0  0
    4.6656    0.3505    0.0000 C   0  0  3  0  0  0  0  0  0  0  0  0
    7.1918   -0.7589    0.0000 C   0  0  3  0  0  0  0  0  0  0  0  0
    7.1918    0.8044    0.0000 C   0  0  3  0  0  0  0  0  0  0  0  0
    7.5682    0.0228    0.0000 C   0  0  3  0  0  0  0  0  0  0  0  0
    6.3459   -0.9519    0.0000 C   0  0  3  0  0  0  0  0  0  0  0  0
    4.9163   -0.8448    0.0000 C   0  0  3  0  0  0  0  0  0  0  0  0
    4.9163    0.8904    0.0000 C   0  0  3  0  0  0  0  0  0  0  0  0
    6.2682    1.8616    0.0000 C   0  0  0  0  0  0  0  0  0  0  0  0
    7.0659    2.2026    0.0000 C   0  0  3  0  0  0  0  0  0  0  0  0
    7.6367    1.5492    0.0000 C   0  0  3  0  0  0  0  0  0  0  0  0
    8.2131    0.2927    0.0000 C   0  0  3  0  0  0  0  0  0  0  0  0
    3.7210   -0.6906    0.0000 C   0  0  0  0  0  0  0  0  0  0  0  0
    4.1649   -0.4110    0.0000 C   0  0  0  0  0  0  0  0  0  0  0  0
    8.2131    1.7772    0.0000 C   0  0  3  0  0  0  0  0  0  0  0  0
    4.1649    0.4566    0.0000 C   0  0  0  0  0  0  0  0  0  0  0  0
    4.9163   -1.8448    0.0000 C   0  0  0  0  0  0  0  0  0  0  0  0
    2.9170    0.6560    0.0000 C   0  0  0  0  0  0  0  0  0  0  0  0
    6.8564   -2.6070    0.0000 C   0  0  0  0  0  0  0  0  0  0  0  0
    2.0000    0.2571    0.0000 C   0  0  0  0  0  0  0  0  0  0  0  0
    8.9498    3.3448    0.0000 C   0  0  0  0  0  0  0  0  0  0  0  0
    4.0503   -3.3448    0.0000 C   0  0  0  0  0  0  0  0  0  0  0  0
    6.2262   -0.1420    0.0000 H   0  0  0  0  0  0  0  0  0  0  0  0
    5.7758    1.2412    0.0000 H   0  0  0  0  0  0  0  0  0  0  0  0
    4.5417    0.9580    0.0000 H   0  0  0  0  0  0  0  0  0  0  0  0
    7.5783   -1.2436    0.0000 H   0  0  0  0  0  0  0  0  0  0  0  0
    7.8111    0.7766    0.0000 H   0  0  0  0  0  0  0  0  0  0  0  0
    5.7607   -1.1567    0.0000 H   0  0  0  0  0  0  0  0  0  0  0  0
    5.4532    1.2004    0.0000 H   0  0  0  0  0  0  0  0  0  0  0  0
    6.0854    2.4540    0.0000 H   0  0  0  0  0  0  0  0  0  0  0  0
    5.6598    1.7418    0.0000 H   0  0  0  0  0  0  0  0  0  0  0  0
    7.0508    2.8224    0.0000 H   0  0  0  0  0  0  0  0  0  0  0  0
    7.9168    2.1023    0.0000 H   0  0  0  0  0  0  0  0  0  0  0  0
    8.7596    0.5855    0.0000 H   0  0  0  0  0  0  0  0  0  0  0  0
    3.1015   -0.6640    0.0000 H   0  0  0  0  0  0  0  0  0  0  0  0
    3.6680   -1.3083    0.0000 H   0  0  0  0  0  0  0  0  0  0  0  0
    3.5544   -0.3033    0.0000 H   0  0  0  0  0  0  0  0  0  0  0  0
    3.9529   -0.9936    0.0000 H   0  0  0  0  0  0  0  0  0  0  0  0
    8.1349    2.3923    0.0000 H   0  0  0  0  0  0  0  0  0  0  0  0
    3.9529    1.0392    0.0000 H   0  0  0  0  0  0  0  0  0  0  0  0
    3.5544    0.3489    0.0000 H   0  0  0  0  0  0  0  0  0  0  0  0
    5.1283   -2.4274    0.0000 H   0  0  0  0  0  0  0  0  0  0  0  0
    5.5269   -1.7371    0.0000 H   0  0  0  0  0  0  0  0  0  0  0  0
    8.0804   -1.2971    0.0000 H   0  0  0  0  0  0  0  0  0  0  0  0
    3.3666    1.0829    0.0000 H   0  0  0  0  0  0  0  0  0  0  0  0
    2.5747    1.1730    0.0000 H   0  0  0  0  0  0  0  0  0  0  0  0
    4.3793    2.2004    0.0000 H   0  0  0  0  0  0  0  0  0  0  0  0
    8.8966    0.9033    0.0000 H   0  0  0  0  0  0  0  0  0  0  0  0
    9.6011    0.0139    0.0000 H   0  0  0  0  0  0  0  0  0  0  0  0
    6.4348   -3.0615    0.0000 H   0  0  0  0  0  0  0  0  0  0  0  0
    7.3110   -3.0287    0.0000 H   0  0  0  0  0  0  0  0  0  0  0  0
    7.2782   -2.1525    0.0000 H   0  0  0  0  0  0  0  0  0  0  0  0
    1.7527    0.8256    0.0000 H   0  0  0  0  0  0  0  0  0  0  0  0
    1.4315    0.0098    0.0000 H   0  0  0  0  0  0  0  0  0  0  0  0
    2.2473   -0.3114    0.0000 H   0  0  0  0  0  0  0  0  0  0  0  0
    9.5676    3.3970    0.0000 H   0  0  0  0  0  0  0  0  0  0  0  0
    8.8976    3.9626    0.0000 H   0  0  0  0  0  0  0  0  0  0  0  0
    8.3320    3.2926    0.0000 H   0  0  0  0  0  0  0  0  0  0  0  0
    3.4303   -3.3448    0.0000 H   0  0  0  0  0  0  0  0  0  0  0  0
    4.0503   -3.9648    0.0000 H   0  0  0  0  0  0  0  0  0  0  0  0
    4.6703   -3.3448    0.0000 H   0  0  0  0  0  0  0  0  0  0  0  0
  1 15  1  0  0  0  0
  1 54  1  0  0  0  0
  2 16  1  0  0  0  0
  2 29  1  0  0  0  0
  3 18  1  0  0  0  0
  3 57  1  0  0  0  0
  4 21  1  0  0  0  0
  4 58  1  0  0  0  0
  5 22  1  0  0  0  0
  5 59  1  0  0  0  0
  6 25  1  0  0  0  0
  6 31  1  0  0  0  0
  7 27  1  0  0  0  0
  7 32  1  0  0  0  0
  8 12  1  0  0  0  0
  8 23  1  0  0  0  0
  8 28  1  0  0  0  0
  9 10  1  0  0  0  0
  9 11  1  0  0  0  0
  9 12  1  0  0  0  0
  9 18  1  0  0  0  0
 10 16  1  0  0  0  0
 10 17  1  0  0  0  0
 10 33  1  0  0  0  0
 11 14  1  0  0  0  0
 11 19  1  0  0  0  0
 11 34  1  0  0  0  0
 12 13  1  0  0  0  0
 12 35  1  0  0  0  0
 13 15  1  0  0  0  0
 13 16  1  0  0  0  0
 13 36  1  0  0  0  0
 14 15  1  0  0  0  0
 14 21  1  0  0  0  0
 14 37  1  0  0  0  0
 15 22  1  0  0  0  0
 16 38  1  0  0  0  0
 17 23  1  0  0  0  0
 17 24  1  0  0  0  0
 17 27  1  0  0  0  0
 18 26  1  0  0  0  0
 18 39  1  0  0  0  0
 19 20  1  0  0  0  0
 19 40  1  0  0  0  0
 19 41  1  0  0  0  0
 20 21  1  0  0  0  0
 20 25  1  0  0  0  0
 20 42  1  0  0  0  0
 21 43  1  0  0  0  0
 22 25  1  0  0  0  0
 22 44  1  0  0  0  0
 23 45  1  0  0  0  0
 23 46  1  0  0  0  0
 24 26  1  0  0  0  0
 24 47  1  0  0  0  0
 24 48  1  0  0  0  0
 25 49  1  0  0  0  0
 26 50  1  0  0  0  0
 26 51  1  0  0  0  0
 27 52  1  0  0  0  0
 27 53  1  0  0  0  0
 28 30  1  0  0  0  0
 28 55  1  0  0  0  0
 28 56  1  0  0  0  0
 29 60  1  0  0  0  0
 29 61  1  0  0  0  0
 29 62  1  0  0  0  0
 30 63  1  0  0  0  0
 30 64  1  0  0  0  0
 30 65  1  0  0  0  0
 31 66  1  0  0  0  0
 31 67  1  0  0  0  0
 31 68  1  0  0  0  0
 32 69  1  0  0  0  0
 32 70  1  0  0  0  0
 32 71  1  0  0  0  0
M  END
> <PUBCHEM_COMPOUND_CID>
14163819

> <PUBCHEM_COMPOUND_CANONICALIZED>
1

> <PUBCHEM_CACTVS_COMPLEXITY>
783

> <PUBCHEM_CACTVS_HBOND_ACCEPTOR>
8

> <PUBCHEM_CACTVS_HBOND_DONOR>
4

> <PUBCHEM_CACTVS_ROTATABLE_BOND>
5

> <PUBCHEM_CACTVS_SUBSKEYS>
AAADcfB6OAAAAAAAAAAAAAAAAAAAAYMAAAA8YMEAB4gWAGAAAAAAHgAACAAAD3zhgAYCAAMABgAAAAAAAAAAAAAAAAAAAAAIAAABEAIAgAAEQAAHAACDAAHw8P8PgAAAAAAAAADSAAaUADSAAaEADQAAAA==

> <PUBCHEM_IUPAC_OPENEYE_NAME>
11-ethyl-6,18-dimethoxy-13-(methoxymethyl)-11-azahexacyclo[7.7.2.12,5.01,10.03,8.013,17]nonadecane-4,7,8,16-tetrol

> <PUBCHEM_IUPAC_CAS_NAME>
11-ethyl-6,18-dimethoxy-13-(methoxymethyl)-11-azahexacyclo[7.7.2.12,5.01,10.03,8.013,17]nonadecane-4,7,8,16-tetrol

> <PUBCHEM_IUPAC_NAME_MARKUP>
11-ethyl-6,18-dimethoxy-13-(methoxymethyl)-11-azahexacyclo[7.7.2.1<SUP>2,5</SUP>.0<SUP>1,10</SUP>.0<SUP>3,8</SUP>.0<SUP>13,17</SUP>]nonadecane-4,7,8,16-tetrol

> <PUBCHEM_IUPAC_NAME>
11-ethyl-6,18-dimethoxy-13-(methoxymethyl)-11-azahexacyclo[7.7.2.12,5.01,10.03,8.013,17]nonadecane-4,7,8,16-tetrol

> <PUBCHEM_IUPAC_SYSTEMATIC_NAME>
11-ethyl-6,18-dimethoxy-13-(methoxymethyl)-11-azahexacyclo[7.7.2.12,5.01,10.03,8.013,17]nonadecane-4,7,8,16-tetrol

> <PUBCHEM_IUPAC_TRADITIONAL_NAME>
11-ethyl-6,18-dimethoxy-13-(methoxymethyl)-11-azahexacyclo[7.7.2.12,5.01,10.03,8.013,17]nonadecane-4,7,8,16-tetrol

> <PUBCHEM_IUPAC_INCHI>
InChI=1S/C24H39NO7/c1-5-25-9-22(10-30-2)7-6-13(26)23-12-8-11-16(27)14(12)24(29,21(28)17(11)31-3)15(20(23)25)18(32-4)19(22)23/h11-21,26-29H,5-10H2,1-4H3

> <PUBCHEM_IUPAC_INCHIKEY>
FPECZWKKKKZPPP-UHFFFAOYSA-N

> <PUBCHEM_XLOGP3_AA>
-1

> <PUBCHEM_EXACT_MASS>
453.272653

> <PUBCHEM_MOLECULAR_FORMULA>
C24H39NO7

> <PUBCHEM_MOLECULAR_WEIGHT>
453.6

> <PUBCHEM_OPENEYE_CAN_SMILES>
CCN1CC2(CCC(C34C2C(C(C31)C5(C6C4CC(C6O)C(C5O)OC)O)OC)O)COC

> <PUBCHEM_OPENEYE_ISO_SMILES>
CCN1CC2(CCC(C34C2C(C(C31)C5(C6C4CC(C6O)C(C5O)OC)O)OC)O)COC

> <PUBCHEM_CACTVS_TPSA>
112

> <PUBCHEM_MONOISOTOPIC_WEIGHT>
453.272653

> <PUBCHEM_TOTAL_CHARGE>
0

> <PUBCHEM_HEAVY_ATOM_COUNT>
32

> <PUBCHEM_ATOM_DEF_STEREO_COUNT>
0

> <PUBCHEM_ATOM_UDEF_STEREO_COUNT>
14

> <PUBCHEM_BOND_DEF_STEREO_COUNT>
0

> <PUBCHEM_BOND_UDEF_STEREO_COUNT>
0

> <PUBCHEM_ISOTOPIC_ATOM_COUNT>
0

> <PUBCHEM_COMPONENT_COUNT>
1

> <PUBCHEM_CACTVS_TAUTO_COUNT>
-1

> <PUBCHEM_COORDINATE_TYPE>
1
5
255

> <PUBCHEM_BONDANNOTATIONS>
15  1  3
10  16  3
11  19  3
13  16  3
14  21  3
17  27  3
20  19  3
16  2  3
18  3  3
21  4  3
22  5  3
25  6  3
12  8  3
9  18  3

$$$$
