6708531
  -OEChem-08242016242D

 89 95  0     1  0  0  0  0  0999 V2000
    8.2565   -0.9129    0.0000 O   0  0  0  0  0  0  0  0  0  0  0  0
    6.7390   -2.0818    0.0000 O   0  0  0  0  0  0  0  0  0  0  0  0
    4.9163    1.6800    0.0000 O   0  0  0  0  0  0  0  0  0  0  0  0
    8.6327    1.4285    0.0000 O   0  0  0  0  0  0  0  0  0  0  0  0
    7.0415    2.9919    0.0000 O   0  0  0  0  0  0  0  0  0  0  0  0
    9.0456   -0.4717    0.0000 O   0  0  0  0  0  0  0  0  0  0  0  0
    9.0340    2.1380    0.0000 O   0  0  0  0  0  0  0  0  0  0  0  0
    3.1654   -0.5901    0.0000 O   0  0  0  0  0  0  0  0  0  0  0  0
    4.0503   -2.5551    0.0000 O   0  0  0  0  0  0  0  0  0  0  0  0
    2.0000    0.0468    0.0000 O   0  0  0  0  0  0  0  0  0  0  0  0
    8.0604   -2.6339    0.0000 O   0  0  0  0  0  0  0  0  0  0  0  0
    9.8605    0.2068    0.0000 O   0  0  0  0  0  0  0  0  0  0  0  0
    3.7210   -0.1490    0.0000 N   0  0  0  0  0  0  0  0  0  0  0  0
    5.6676    0.2462    0.0000 C   0  0  1  0  0  0  0  0  0  0  0  0
    5.6676   -0.6213    0.0000 C   0  0  3  0  0  0  0  0  0  0  0  0
    6.3459    0.7872    0.0000 C   0  0  3  0  0  0  0  0  0  0  0  0
    4.6656    0.1402    0.0000 C   0  0  3  0  0  0  0  0  0  0  0  0
    7.1918   -0.9692    0.0000 C   0  0  1  0  0  0  0  0  0  0  0  0
    7.1918    0.5941    0.0000 C   0  0  3  0  0  0  0  0  0  0  0  0
    7.5682   -0.1876    0.0000 C   0  0  3  0  0  0  0  0  0  0  0  0
    6.3459   -1.1623    0.0000 C   0  0  2  0  0  0  0  0  0  0  0  0
    4.9163   -1.0551    0.0000 C   0  0  2  0  0  0  0  0  0  0  0  0
    4.9163    0.6800    0.0000 C   0  0  2  0  0  0  0  0  0  0  0  0
    7.0659    1.9922    0.0000 C   0  0  3  0  0  0  0  0  0  0  0  0
    6.2682    1.6512    0.0000 C   0  0  0  0  0  0  0  0  0  0  0  0
    7.6367    1.3389    0.0000 C   0  0  3  0  0  0  0  0  0  0  0  0
    8.2131    0.0824    0.0000 C   0  0  3  0  0  0  0  0  0  0  0  0
    3.7210   -0.9009    0.0000 C   0  0  0  0  0  0  0  0  0  0  0  0
    4.1649   -0.6213    0.0000 C   0  0  1  0  0  0  0  0  0  0  0  0
    8.2131    1.5669    0.0000 C   0  0  3  0  0  0  0  0  0  0  0  0
    4.1649    0.2462    0.0000 C   0  0  0  0  0  0  0  0  0  0  0  0
    4.9163   -2.0551    0.0000 C   0  0  0  0  0  0  0  0  0  0  0  0
    2.9170    0.4457    0.0000 C   0  0  0  0  0  0  0  0  0  0  0  0
    8.6553   -1.8300    0.0000 C   0  0  0  0  0  0  0  0  0  0  0  0
    6.1391   -2.8819    0.0000 C   0  0  0  0  0  0  0  0  0  0  0  0
    4.0502    2.1800    0.0000 C   0  0  0  0  0  0  0  0  0  0  0  0
    9.5993    1.1721    0.0000 C   0  0  0  0  0  0  0  0  0  0  0  0
    8.9498    3.1344    0.0000 C   0  0  0  0  0  0  0  0  0  0  0  0
    9.6488   -1.9432    0.0000 C   0  0  0  0  0  0  0  0  0  0  0  0
    4.0503   -3.5551    0.0000 C   0  0  0  0  0  0  0  0  0  0  0  0
   10.3046    1.8810    0.0000 C   0  0  0  0  0  0  0  0  0  0  0  0
   11.2712    1.6246    0.0000 C   0  0  0  0  0  0  0  0  0  0  0  0
   10.0434    2.8462    0.0000 C   0  0  0  0  0  0  0  0  0  0  0  0
   11.9765    2.3334    0.0000 C   0  0  0  0  0  0  0  0  0  0  0  0
   10.7487    3.5551    0.0000 C   0  0  0  0  0  0  0  0  0  0  0  0
   11.7153    3.2987    0.0000 C   0  0  0  0  0  0  0  0  0  0  0  0
    5.6213   -1.2396    0.0000 H   0  0  0  0  0  0  0  0  0  0  0  0
    5.7758    1.0308    0.0000 H   0  0  0  0  0  0  0  0  0  0  0  0
    4.5417    0.7477    0.0000 H   0  0  0  0  0  0  0  0  0  0  0  0
    7.7217   -1.6338    0.0000 H   0  0  0  0  0  0  0  0  0  0  0  0
    7.8111    0.5663    0.0000 H   0  0  0  0  0  0  0  0  0  0  0  0
    5.8790   -1.5702    0.0000 H   0  0  0  0  0  0  0  0  0  0  0  0
    5.4532    0.9900    0.0000 H   0  0  0  0  0  0  0  0  0  0  0  0
    6.0854    2.2437    0.0000 H   0  0  0  0  0  0  0  0  0  0  0  0
    5.6598    1.5314    0.0000 H   0  0  0  0  0  0  0  0  0  0  0  0
    7.8676    1.9143    0.0000 H   0  0  0  0  0  0  0  0  0  0  0  0
    8.7596    0.3751    0.0000 H   0  0  0  0  0  0  0  0  0  0  0  0
    3.1015   -0.8744    0.0000 H   0  0  0  0  0  0  0  0  0  0  0  0
    3.6680   -1.5186    0.0000 H   0  0  0  0  0  0  0  0  0  0  0  0
    3.9952   -1.2176    0.0000 H   0  0  0  0  0  0  0  0  0  0  0  0
    8.1349    2.1819    0.0000 H   0  0  0  0  0  0  0  0  0  0  0  0
    3.9529    0.8288    0.0000 H   0  0  0  0  0  0  0  0  0  0  0  0
    3.5544    0.1386    0.0000 H   0  0  0  0  0  0  0  0  0  0  0  0
    5.1283   -2.6377    0.0000 H   0  0  0  0  0  0  0  0  0  0  0  0
    5.5269   -1.9475    0.0000 H   0  0  0  0  0  0  0  0  0  0  0  0
    7.5707    3.3150    0.0000 H   0  0  0  0  0  0  0  0  0  0  0  0
    2.9871    1.0617    0.0000 H   0  0  0  0  0  0  0  0  0  0  0  0
    9.0062   -1.0904    0.0000 H   0  0  0  0  0  0  0  0  0  0  0  0
    2.8388   -1.1171    0.0000 H   0  0  0  0  0  0  0  0  0  0  0  0
    5.6430   -2.5100    0.0000 H   0  0  0  0  0  0  0  0  0  0  0  0
    5.7672   -3.3780    0.0000 H   0  0  0  0  0  0  0  0  0  0  0  0
    6.6352   -3.2538    0.0000 H   0  0  0  0  0  0  0  0  0  0  0  0
    4.3602    2.7170    0.0000 H   0  0  0  0  0  0  0  0  0  0  0  0
    3.5133    2.4900    0.0000 H   0  0  0  0  0  0  0  0  0  0  0  0
    3.7402    1.6431    0.0000 H   0  0  0  0  0  0  0  0  0  0  0  0
    9.5676    3.1866    0.0000 H   0  0  0  0  0  0  0  0  0  0  0  0
    8.8976    3.7522    0.0000 H   0  0  0  0  0  0  0  0  0  0  0  0
    8.3320    3.0823    0.0000 H   0  0  0  0  0  0  0  0  0  0  0  0
    9.5786   -2.5593    0.0000 H   0  0  0  0  0  0  0  0  0  0  0  0
   10.2648   -2.0135    0.0000 H   0  0  0  0  0  0  0  0  0  0  0  0
    9.7190   -1.3272    0.0000 H   0  0  0  0  0  0  0  0  0  0  0  0
    3.4303   -3.5551    0.0000 H   0  0  0  0  0  0  0  0  0  0  0  0
    4.0503   -4.1751    0.0000 H   0  0  0  0  0  0  0  0  0  0  0  0
    4.6703   -3.5551    0.0000 H   0  0  0  0  0  0  0  0  0  0  0  0
   11.4331    1.0261    0.0000 H   0  0  0  0  0  0  0  0  0  0  0  0
    9.4441    3.0052    0.0000 H   0  0  0  0  0  0  0  0  0  0  0  0
   12.5758    2.1745    0.0000 H   0  0  0  0  0  0  0  0  0  0  0  0
   10.5868    4.1536    0.0000 H   0  0  0  0  0  0  0  0  0  0  0  0
   12.1526    3.7382    0.0000 H   0  0  0  0  0  0  0  0  0  0  0  0
  1 20  1  0  0  0  0
  1 34  1  0  0  0  0
  2 21  1  0  0  0  0
  2 35  1  0  0  0  0
 23  3  1  6  0  0  0
  3 36  1  0  0  0  0
  4 26  1  0  0  0  0
  4 37  1  0  0  0  0
  5 24  1  0  0  0  0
  5 66  1  0  0  0  0
  6 27  1  0  0  0  0
  6 68  1  0  0  0  0
  7 30  1  0  0  0  0
  7 38  1  0  0  0  0
 29  8  1  6  0  0  0
  8 69  1  0  0  0  0
  9 32  1  0  0  0  0
  9 40  1  0  0  0  0
 10 33  2  0  0  0  0
 11 34  2  0  0  0  0
 12 37  2  0  0  0  0
 13 17  1  0  0  0  0
 13 28  1  0  0  0  0
 13 33  1  0  0  0  0
 14 15  1  0  0  0  0
 14 16  1  6  0  0  0
 14 17  1  0  0  0  0
 14 23  1  0  0  0  0
 15 21  1  0  0  0  0
 15 22  1  0  0  0  0
 15 47  1  0  0  0  0
 16 19  1  0  0  0  0
 16 25  1  0  0  0  0
 16 48  1  0  0  0  0
 17 18  1  0  0  0  0
 17 49  1  0  0  0  0
 18 20  1  0  0  0  0
 18 21  1  0  0  0  0
 18 50  1  6  0  0  0
 19 20  1  0  0  0  0
 19 26  1  0  0  0  0
 19 51  1  0  0  0  0
 20 27  1  0  0  0  0
 21 52  1  0  0  0  0
 22 28  1  0  0  0  0
 22 29  1  0  0  0  0
 22 32  1  1  0  0  0
 23 31  1  0  0  0  0
 23 53  1  0  0  0  0
 24 25  1  0  0  0  0
 24 26  1  0  0  0  0
 24 30  1  0  0  0  0
 25 54  1  0  0  0  0
 25 55  1  0  0  0  0
 26 56  1  0  0  0  0
 27 30  1  0  0  0  0
 27 57  1  0  0  0  0
 28 58  1  0  0  0  0
 28 59  1  0  0  0  0
 29 31  1  0  0  0  0
 29 60  1  0  0  0  0
 30 61  1  0  0  0  0
 31 62  1  0  0  0  0
 31 63  1  0  0  0  0
 32 64  1  0  0  0  0
 32 65  1  0  0  0  0
 33 67  1  0  0  0  0
 34 39  1  0  0  0  0
 35 70  1  0  0  0  0
 35 71  1  0  0  0  0
 35 72  1  0  0  0  0
 36 73  1  0  0  0  0
 36 74  1  0  0  0  0
 36 75  1  0  0  0  0
 37 41  1  0  0  0  0
 38 76  1  0  0  0  0
 38 77  1  0  0  0  0
 38 78  1  0  0  0  0
 39 79  1  0  0  0  0
 39 80  1  0  0  0  0
 39 81  1  0  0  0  0
 40 82  1  0  0  0  0
 40 83  1  0  0  0  0
 40 84  1  0  0  0  0
 41 42  2  0  0  0  0
 41 43  1  0  0  0  0
 42 44  1  0  0  0  0
 42 85  1  0  0  0  0
 43 45  2  0  0  0  0
 43 86  1  0  0  0  0
 44 46  2  0  0  0  0
 44 87  1  0  0  0  0
 45 46  1  0  0  0  0
 45 88  1  0  0  0  0
 46 89  1  0  0  0  0
M  END
> <PUBCHEM_COMPOUND_CID>
6708531

> <PUBCHEM_COMPOUND_CANONICALIZED>
1

> <PUBCHEM_CACTVS_COMPLEXITY>
1240

> <PUBCHEM_CACTVS_HBOND_ACCEPTOR>
12

> <PUBCHEM_CACTVS_HBOND_DONOR>
3

> <PUBCHEM_CACTVS_ROTATABLE_BOND>
10

> <PUBCHEM_CACTVS_SUBSKEYS>
AAADcfB+PAAAAAAAAAAAAAAAAAAAAYMAAAA8YMGCB4gWAGABAAAAHgAACAAAD3zhmAYyCIMABgCIAiDSmAACAAAkAAAIiAEICMgJNjKAtRiGcQAnxgGLqYf4+P+PgAAAAAAAAADSAAaUADSAAaEADSAAAA==

> <PUBCHEM_IUPAC_OPENEYE_NAME>
[(1S,9R,13R,14R,16S,18R)-8-acetoxy-11-formyl-5,7,14-trihydroxy-6,16,18-trimethoxy-13-(methoxymethyl)-11-azahexacyclo[7.7.2.12,5.01,10.03,8.013,17]nonadecan-4-yl] benzoate

> <PUBCHEM_IUPAC_CAS_NAME>
benzoic acid [(1S,9R,13R,14R,16S,18R)-8-acetyloxy-11-formyl-5,7,14-trihydroxy-6,16,18-trimethoxy-13-(methoxymethyl)-11-azahexacyclo[7.7.2.12,5.01,10.03,8.013,17]nonadecan-4-yl] ester

> <PUBCHEM_IUPAC_NAME_MARKUP>
[(1<I>S</I>,9<I>R</I>,13<I>R</I>,14<I>R</I>,16<I>S</I>,18<I>R</I>)-8-acetyloxy-11-formyl-5,7,14-trihydroxy-6,16,18-trimethoxy-13-(methoxymethyl)-11-azahexacyclo[7.7.2.1<SUP>2,5</SUP>.0<SUP>1,10</SUP>.0<SUP>3,8</SUP>.0<SUP>13,17</SUP>]nonadecan-4-yl] benzoate

> <PUBCHEM_IUPAC_NAME>
[(1S,9R,13R,14R,16S,18R)-8-acetyloxy-11-formyl-5,7,14-trihydroxy-6,16,18-trimethoxy-13-(methoxymethyl)-11-azahexacyclo[7.7.2.12,5.01,10.03,8.013,17]nonadecan-4-yl] benzoate

> <PUBCHEM_IUPAC_SYSTEMATIC_NAME>
[(1S,9R,13R,14R,16S,18R)-8-acetyloxy-11-methanoyl-6,16,18-trimethoxy-13-(methoxymethyl)-5,7,14-tris(oxidanyl)-11-azahexacyclo[7.7.2.12,5.01,10.03,8.013,17]nonadecan-4-yl] benzoate

> <PUBCHEM_IUPAC_TRADITIONAL_NAME>
benzoic acid [(1S,9R,13R,14R,16S,18R)-8-acetoxy-11-formyl-5,7,14-trihydroxy-6,16,18-trimethoxy-13-(methoxymethyl)-11-azahexacyclo[7.7.2.12,5.01,10.03,8.013,17]nonadecan-4-yl] ester

> <PUBCHEM_IUPAC_INCHI>
InChI=1S/C33H43NO12/c1-16(36)46-33-21-18(12-31(40,28(44-5)26(33)38)27(21)45-29(39)17-9-7-6-8-10-17)32-20(42-3)11-19(37)30(14-41-2)13-34(15-35)25(32)22(33)23(43-4)24(30)32/h6-10,15,18-28,37-38,40H,11-14H2,1-5H3/t18?,19-,20+,21?,22+,23+,24?,25?,26?,27?,28?,30+,31?,32+,33?/m1/s1

> <PUBCHEM_IUPAC_INCHIKEY>
SVQZFPSKTHNMRD-DZCZYSFVSA-N

> <PUBCHEM_XLOGP3_AA>
-0.6

> <PUBCHEM_EXACT_MASS>
645.278526

> <PUBCHEM_MOLECULAR_FORMULA>
C33H43NO12

> <PUBCHEM_MOLECULAR_WEIGHT>
645.7

> <PUBCHEM_OPENEYE_CAN_SMILES>
CC(=O)OC12C3C(CC(C3OC(=O)C4=CC=CC=C4)(C(C1O)OC)O)C56C(CC(C7(C5C(C2C6N(C7)C=O)OC)COC)O)OC

> <PUBCHEM_OPENEYE_ISO_SMILES>
CC(=O)OC12[C@H]3[C@@H](C4[C@@]5(CN(C3[C@]4([C@H](C[C@H]5O)OC)C6C1C(C(C6)(C(C2O)OC)O)OC(=O)C7=CC=CC=C7)C=O)COC)OC

> <PUBCHEM_CACTVS_TPSA>
171

> <PUBCHEM_MONOISOTOPIC_WEIGHT>
645.278526

> <PUBCHEM_TOTAL_CHARGE>
0

> <PUBCHEM_HEAVY_ATOM_COUNT>
46

> <PUBCHEM_ATOM_DEF_STEREO_COUNT>
6

> <PUBCHEM_ATOM_UDEF_STEREO_COUNT>
9

> <PUBCHEM_BOND_DEF_STEREO_COUNT>
0

> <PUBCHEM_BOND_UDEF_STEREO_COUNT>
0

> <PUBCHEM_ISOTOPIC_ATOM_COUNT>
0

> <PUBCHEM_COMPONENT_COUNT>
1

> <PUBCHEM_CACTVS_TAUTO_COUNT>
-1

> <PUBCHEM_COORDINATE_TYPE>
1
5
255

> <PUBCHEM_BONDANNOTATIONS>
20  1  3
17  13  3
14  16  6
15  21  3
16  25  3
18  50  6
19  26  3
22  32  5
24  26  3
23  3  6
26  4  3
41  42  8
41  43  8
42  44  8
43  45  8
44  46  8
45  46  8
27  6  3
30  7  3
29  8  6

$$$$
