53360479
  -OEChem-08282005493D

 38 39  0     1  0  0  0  0  0999 V2000
    2.5714    2.8340   -0.3562 O   0  0  0  0  0  0  0  0  0  0  0  0
   -3.5086    2.0055   -0.6099 O   0  0  0  0  0  0  0  0  0  0  0  0
    1.0426   -0.2914   -0.1053 C   0  0  2  0  0  0  0  0  0  0  0  0
    2.2765   -0.5580    0.7121 C   0  0  2  0  0  0  0  0  0  0  0  0
    1.7263    0.8349    0.6139 C   0  0  1  0  0  0  0  0  0  0  0  0
   -0.3196   -0.7767    0.3467 C   0  0  2  0  0  0  0  0  0  0  0  0
    3.6328   -0.5950    0.0757 C   0  0  0  0  0  0  0  0  0  0  0  0
    2.7420    1.6612   -0.0677 C   0  0  0  0  0  0  0  0  0  0  0  0
    3.9934    0.8503   -0.3046 C   0  0  0  0  0  0  0  0  0  0  0  0
   -0.6240   -2.2369   -0.0976 C   0  0  0  0  0  0  0  0  0  0  0  0
   -1.3924    0.2495   -0.0912 C   0  0  0  0  0  0  0  0  0  0  0  0
    0.3314   -3.2493    0.5461 C   0  0  0  0  0  0  0  0  0  0  0  0
   -0.6417   -2.4370   -1.6155 C   0  0  0  0  0  0  0  0  0  0  0  0
   -2.8033   -0.0788    0.3960 C   0  0  0  0  0  0  0  0  0  0  0  0
   -3.8074    1.0048    0.0399 C   0  0  0  0  0  0  0  0  0  0  0  0
   -5.2193    0.7830    0.5175 C   0  0  0  0  0  0  0  0  0  0  0  0
    1.1347   -0.2966   -1.1864 H   0  0  0  0  0  0  0  0  0  0  0  0
    2.2067   -1.0808    1.6543 H   0  0  0  0  0  0  0  0  0  0  0  0
    1.2621    1.2547    1.4976 H   0  0  0  0  0  0  0  0  0  0  0  0
   -0.3274   -0.7763    1.4467 H   0  0  0  0  0  0  0  0  0  0  0  0
    4.3794   -1.0029    0.7655 H   0  0  0  0  0  0  0  0  0  0  0  0
    3.6215   -1.2368   -0.8123 H   0  0  0  0  0  0  0  0  0  0  0  0
    4.7915    1.2343    0.3378 H   0  0  0  0  0  0  0  0  0  0  0  0
    4.2965    0.9190   -1.3527 H   0  0  0  0  0  0  0  0  0  0  0  0
   -1.6207   -2.5012    0.2755 H   0  0  0  0  0  0  0  0  0  0  0  0
   -1.3925    0.3527   -1.1837 H   0  0  0  0  0  0  0  0  0  0  0  0
   -1.1105    1.2396    0.2920 H   0  0  0  0  0  0  0  0  0  0  0  0
   -0.9395   -3.4627   -1.8607 H   0  0  0  0  0  0  0  0  0  0  0  0
   -1.3586   -1.7680   -2.1000 H   0  0  0  0  0  0  0  0  0  0  0  0
    1.3475   -3.1579    0.1499 H   0  0  0  0  0  0  0  0  0  0  0  0
   -0.0062   -4.2727    0.3484 H   0  0  0  0  0  0  0  0  0  0  0  0
    0.3689   -3.1175    1.6323 H   0  0  0  0  0  0  0  0  0  0  0  0
    0.3436   -2.2684   -2.0609 H   0  0  0  0  0  0  0  0  0  0  0  0
   -2.8044   -0.1966    1.4849 H   0  0  0  0  0  0  0  0  0  0  0  0
   -3.1641   -1.0046   -0.0624 H   0  0  0  0  0  0  0  0  0  0  0  0
   -5.8474    1.6262    0.2169 H   0  0  0  0  0  0  0  0  0  0  0  0
   -5.6173   -0.1316    0.0712 H   0  0  0  0  0  0  0  0  0  0  0  0
   -5.2296    0.7070    1.6075 H   0  0  0  0  0  0  0  0  0  0  0  0
  1  8  2  0  0  0  0
  2 15  2  0  0  0  0
  3  4  1  0  0  0  0
  3  5  1  0  0  0  0
  3  6  1  0  0  0  0
  3 17  1  0  0  0  0
  4  5  1  0  0  0  0
  4  7  1  0  0  0  0
  4 18  1  0  0  0  0
  5  8  1  0  0  0  0
  5 19  1  0  0  0  0
  6 10  1  0  0  0  0
  6 11  1  0  0  0  0
  6 20  1  0  0  0  0
  7  9  1  0  0  0  0
  7 21  1  0  0  0  0
  7 22  1  0  0  0  0
  8  9  1  0  0  0  0
  9 23  1  0  0  0  0
  9 24  1  0  0  0  0
 10 12  1  0  0  0  0
 10 13  1  0  0  0  0
 10 25  1  0  0  0  0
 11 14  1  0  0  0  0
 11 26  1  0  0  0  0
 11 27  1  0  0  0  0
 12 30  1  0  0  0  0
 12 31  1  0  0  0  0
 12 32  1  0  0  0  0
 13 28  1  0  0  0  0
 13 29  1  0  0  0  0
 13 33  1  0  0  0  0
 14 15  1  0  0  0  0
 14 34  1  0  0  0  0
 14 35  1  0  0  0  0
 15 16  1  0  0  0  0
 16 36  1  0  0  0  0
 16 37  1  0  0  0  0
 16 38  1  0  0  0  0
M  END
> <PUBCHEM_COMPOUND_CID>
53360479

> <PUBCHEM_CONFORMER_RMSD>
0.8

> <PUBCHEM_CONFORMER_DIVERSEORDER>
1
41
11
27
5
32
19
13
39
42
43
20
34
30
37
31
10
35
18
7
21
33
4
12
38
22
9
17
26
23
24
15
8
25
40
36
6
16
28
2
14
29
3

> <PUBCHEM_MMFF94_PARTIAL_CHARGES>
15
1 -0.57
14 0.06
15 0.45
16 0.06
17 0.1
18 0.1
19 0.1
2 -0.57
3 -0.19
4 -0.19
5 -0.1
6 0.09
7 0.09
8 0.51
9 0.06

> <PUBCHEM_EFFECTIVE_ROTOR_COUNT>
5.6

> <PUBCHEM_PHARMACOPHORE_FEATURES>
5
1 1 acceptor
1 2 acceptor
3 10 12 13 hydrophobe
4 6 10 11 14 hydrophobe
6 3 4 5 7 8 9 rings

> <PUBCHEM_HEAVY_ATOM_COUNT>
16

> <PUBCHEM_ATOM_DEF_STEREO_COUNT>
4

> <PUBCHEM_ATOM_UDEF_STEREO_COUNT>
0

> <PUBCHEM_BOND_DEF_STEREO_COUNT>
0

> <PUBCHEM_BOND_UDEF_STEREO_COUNT>
0

> <PUBCHEM_ISOTOPIC_ATOM_COUNT>
0

> <PUBCHEM_COMPONENT_COUNT>
1

> <PUBCHEM_CACTVS_TAUTO_COUNT>
9

> <PUBCHEM_CONFORMER_ID>
032E375F00000001

> <PUBCHEM_MMFF94_ENERGY>
30.3977

> <PUBCHEM_FEATURE_SELFOVERLAP>
25.443

> <PUBCHEM_SHAPE_FINGERPRINT>
10922049 32 18411705374290586443
12173636 292 18192991749559124886
122479 349 18336549424972720251
12500047 106 18270959171736408056
12532896 13 18338516442827717282
12592029 89 18337112263468352571
14123255 52 18409164437046224632
14178342 30 18048015648716812122
14252887 29 12180129730853182952
14415576 193 18339080385176832457
15099037 51 18411986823766466846
15906896 17 18197213865535863343
17134986 127 18411135835693556086
1741750 31 18270398424742702064
17834072 32 18411422838520231273
18186145 218 18272374161122398817
200 152 9295293824143011304
204376 136 18411422817256190091
20645476 183 18339080492329436350
20645477 56 18269836578727881008
21069387 34 15267075713729608942
21501502 16 18194394722528227046
21524375 3 18342457045425512971
22094290 62 18409163320623766008
22620623 9 16700608116304754191
23402539 116 18060412521480685516
23419403 2 17480636724540537727
23558518 356 17973440198673601898
25 1 18272090474189986411
2637199 183 18411426093830829682
26918003 58 10519987041095670884
298252 57 18411699889469669946
3060560 45 18340486664590368526
34934 24 18411415142529303888
474 4 18411986823761094809
474229 33 18338801221283079683
58051976 378 18341610370343825247
6138700 20 18124602977316862782
6333272 397 18410013230337787889
633830 44 18343867701690331125
69090 78 18412541050229684299
7164475 11 18056182816170946902
7364860 26 18124033434187273395
7832392 63 18265332987880459412
81228 2 17764570406945470843
81539 233 18337953381405470031
8272917 22 18269278950439106955
83771 10 8646767789952559803
9999458 23 18334298634566345206

> <PUBCHEM_SHAPE_MULTIPOLES>
317.53
7.86
3.02
0.92
6.28
1.51
-0.2
-5.94
0.45
-0.45
-0.49
0.11
0.4
-0.36

> <PUBCHEM_SHAPE_SELFOVERLAP>
637.785

> <PUBCHEM_SHAPE_VOLUME>
189.4

> <PUBCHEM_COORDINATE_TYPE>
2
5
10

$$$$
