10527286
  -OEChem-08282008323D

 84 88  0     1  0  0  0  0  0999 V2000
    4.6813   -2.9068    1.3449 O   0  0  0  0  0  0  0  0  0  0  0  0
   -6.0437    1.4483    1.1055 O   0  0  0  0  0  0  0  0  0  0  0  0
    0.8453   -0.8598   -0.5597 C   0  0  1  0  0  0  0  0  0  0  0  0
   -0.6409   -0.9632    0.1034 C   0  0  1  0  0  0  0  0  0  0  0  0
    1.7092    0.1702    0.2853 C   0  0  1  0  0  0  0  0  0  0  0  0
   -1.2867    0.4803    0.1146 C   0  0  1  0  0  0  0  0  0  0  0  0
    3.1699    0.2081   -0.2185 C   0  0  2  0  0  0  0  0  0  0  0  0
   -2.8423    0.5894    0.4466 C   0  0  2  0  0  0  0  0  0  0  0  0
    3.8256   -1.1889   -0.0779 C   0  0  1  0  0  0  0  0  0  0  0  0
   -3.6108   -0.4473   -0.4444 C   0  0  1  0  0  0  0  0  0  0  0  0
    1.5739   -2.2508   -0.6104 C   0  0  0  0  0  0  0  0  0  0  0  0
    1.0362    1.5449    0.3664 C   0  0  0  0  0  0  0  0  0  0  0  0
   -0.3997    1.4758    0.8950 C   0  0  0  0  0  0  0  0  0  0  0  0
   -1.5602   -1.9197   -0.7046 C   0  0  0  0  0  0  0  0  0  0  0  0
    4.2073    1.1565    0.4168 C   0  0  1  0  0  0  0  0  0  0  0  0
    3.0736   -2.1874   -0.9672 C   0  0  0  0  0  0  0  0  0  0  0  0
   -3.0361   -1.8703   -0.2990 C   0  0  0  0  0  0  0  0  0  0  0  0
    5.2498   -0.8729   -0.5470 C   0  0  0  0  0  0  0  0  0  0  0  0
   -5.1901   -0.3780   -0.3702 C   0  0  0  0  0  0  0  0  0  0  0  0
    0.7605   -0.3880   -2.0529 C   0  0  0  0  0  0  0  0  0  0  0  0
   -3.3267    2.0331    0.0572 C   0  0  0  0  0  0  0  0  0  0  0  0
   -0.5353   -1.5555    1.5413 C   0  0  0  0  0  0  0  0  0  0  0  0
    5.5689    0.4749    0.1153 C   0  0  0  0  0  0  0  0  0  0  0  0
   -3.1257    0.4016    1.9551 C   0  0  0  0  0  0  0  0  0  0  0  0
    3.8989   -1.7363    1.3712 C   0  0  0  0  0  0  0  0  0  0  0  0
   -5.6892    1.0977   -0.2295 C   0  0  2  0  0  0  0  0  0  0  0  0
   -4.6500    2.1020   -0.7134 C   0  0  0  0  0  0  0  0  0  0  0  0
    4.2014    2.5740   -0.1523 C   0  0  0  0  0  0  0  0  0  0  0  0
   -5.7908   -1.2858    0.7235 C   0  0  0  0  0  0  0  0  0  0  0  0
   -5.7453   -0.9078   -1.7250 C   0  0  0  0  0  0  0  0  0  0  0  0
    5.2946    3.4178    0.4987 C   0  0  0  0  0  0  0  0  0  0  0  0
    4.3772    2.5439   -1.6688 C   0  0  0  0  0  0  0  0  0  0  0  0
    1.7569   -0.1864    1.3187 H   0  0  0  0  0  0  0  0  0  0  0  0
   -1.2497    0.8207   -0.9276 H   0  0  0  0  0  0  0  0  0  0  0  0
    3.1350    0.4310   -1.2856 H   0  0  0  0  0  0  0  0  0  0  0  0
   -3.3625   -0.1582   -1.4792 H   0  0  0  0  0  0  0  0  0  0  0  0
    1.0769   -2.9050   -1.3377 H   0  0  0  0  0  0  0  0  0  0  0  0
    1.4958   -2.7686    0.3467 H   0  0  0  0  0  0  0  0  0  0  0  0
    1.0495    2.0435   -0.6089 H   0  0  0  0  0  0  0  0  0  0  0  0
    1.5951    2.1843    1.0579 H   0  0  0  0  0  0  0  0  0  0  0  0
   -0.3621    1.2129    1.9569 H   0  0  0  0  0  0  0  0  0  0  0  0
   -0.8193    2.4865    0.8525 H   0  0  0  0  0  0  0  0  0  0  0  0
   -1.2070   -2.9540   -0.6119 H   0  0  0  0  0  0  0  0  0  0  0  0
   -1.5266   -1.6820   -1.7713 H   0  0  0  0  0  0  0  0  0  0  0  0
    4.0544    1.2024    1.5027 H   0  0  0  0  0  0  0  0  0  0  0  0
    3.5058   -3.1923   -0.9027 H   0  0  0  0  0  0  0  0  0  0  0  0
    3.1812   -1.9039   -2.0212 H   0  0  0  0  0  0  0  0  0  0  0  0
   -3.5747   -2.5636   -0.9543 H   0  0  0  0  0  0  0  0  0  0  0  0
   -3.1688   -2.2552    0.7157 H   0  0  0  0  0  0  0  0  0  0  0  0
    5.2744   -0.7493   -1.6375 H   0  0  0  0  0  0  0  0  0  0  0  0
    5.9948   -1.6342   -0.2976 H   0  0  0  0  0  0  0  0  0  0  0  0
    1.7380   -0.3297   -2.5373 H   0  0  0  0  0  0  0  0  0  0  0  0
    0.1894   -1.0881   -2.6686 H   0  0  0  0  0  0  0  0  0  0  0  0
    0.3129    0.5998   -2.1731 H   0  0  0  0  0  0  0  0  0  0  0  0
   -2.5841    2.5385   -0.5730 H   0  0  0  0  0  0  0  0  0  0  0  0
   -3.4048    2.6572    0.9573 H   0  0  0  0  0  0  0  0  0  0  0  0
   -0.0972   -2.5569    1.5393 H   0  0  0  0  0  0  0  0  0  0  0  0
    0.0557   -0.9417    2.2230 H   0  0  0  0  0  0  0  0  0  0  0  0
   -1.5033   -1.6930    2.0161 H   0  0  0  0  0  0  0  0  0  0  0  0
    6.0855    0.2977    1.0675 H   0  0  0  0  0  0  0  0  0  0  0  0
    6.2765    1.0352   -0.4993 H   0  0  0  0  0  0  0  0  0  0  0  0
   -3.1611   -0.6434    2.2594 H   0  0  0  0  0  0  0  0  0  0  0  0
   -2.3879    0.9092    2.5814 H   0  0  0  0  0  0  0  0  0  0  0  0
   -4.0880    0.8235    2.2503 H   0  0  0  0  0  0  0  0  0  0  0  0
    2.9238   -1.9756    1.8032 H   0  0  0  0  0  0  0  0  0  0  0  0
    4.3799   -1.0356    2.0590 H   0  0  0  0  0  0  0  0  0  0  0  0
   -6.6001    1.2463   -0.8227 H   0  0  0  0  0  0  0  0  0  0  0  0
   -5.0454    3.1211   -0.6185 H   0  0  0  0  0  0  0  0  0  0  0  0
   -4.4563    1.9427   -1.7813 H   0  0  0  0  0  0  0  0  0  0  0  0
    3.2513    3.0683    0.0650 H   0  0  0  0  0  0  0  0  0  0  0  0
   -5.5593   -2.3419    0.5486 H   0  0  0  0  0  0  0  0  0  0  0  0
   -5.4311   -1.0311    1.7226 H   0  0  0  0  0  0  0  0  0  0  0  0
   -6.8843   -1.2056    0.7382 H   0  0  0  0  0  0  0  0  0  0  0  0
   -6.8413   -0.8727   -1.7414 H   0  0  0  0  0  0  0  0  0  0  0  0
   -5.3853   -0.3069   -2.5677 H   0  0  0  0  0  0  0  0  0  0  0  0
   -5.4571   -1.9474   -1.9089 H   0  0  0  0  0  0  0  0  0  0  0  0
    6.3042    3.1010    0.2217 H   0  0  0  0  0  0  0  0  0  0  0  0
    5.1941    4.4658    0.1936 H   0  0  0  0  0  0  0  0  0  0  0  0
    5.2140    3.3879    1.5906 H   0  0  0  0  0  0  0  0  0  0  0  0
    5.2027    1.9266   -2.0280 H   0  0  0  0  0  0  0  0  0  0  0  0
    4.5686    3.5599   -2.0363 H   0  0  0  0  0  0  0  0  0  0  0  0
    3.4620    2.2245   -2.1768 H   0  0  0  0  0  0  0  0  0  0  0  0
    4.1050   -3.6492    1.0974 H   0  0  0  0  0  0  0  0  0  0  0  0
   -6.8718    0.9888    1.3238 H   0  0  0  0  0  0  0  0  0  0  0  0
  1 25  1  0  0  0  0
  1 83  1  0  0  0  0
  2 26  1  0  0  0  0
  2 84  1  0  0  0  0
  3  4  1  0  0  0  0
  3  5  1  0  0  0  0
  3 11  1  0  0  0  0
  3 20  1  0  0  0  0
  4  6  1  0  0  0  0
  4 14  1  0  0  0  0
  4 22  1  0  0  0  0
  5  7  1  0  0  0  0
  5 12  1  0  0  0  0
  5 33  1  0  0  0  0
  6  8  1  0  0  0  0
  6 13  1  0  0  0  0
  6 34  1  0  0  0  0
  7  9  1  0  0  0  0
  7 15  1  0  0  0  0
  7 35  1  0  0  0  0
  8 10  1  0  0  0  0
  8 21  1  0  0  0  0
  8 24  1  0  0  0  0
  9 16  1  0  0  0  0
  9 18  1  0  0  0  0
  9 25  1  0  0  0  0
 10 17  1  0  0  0  0
 10 19  1  0  0  0  0
 10 36  1  0  0  0  0
 11 16  1  0  0  0  0
 11 37  1  0  0  0  0
 11 38  1  0  0  0  0
 12 13  1  0  0  0  0
 12 39  1  0  0  0  0
 12 40  1  0  0  0  0
 13 41  1  0  0  0  0
 13 42  1  0  0  0  0
 14 17  1  0  0  0  0
 14 43  1  0  0  0  0
 14 44  1  0  0  0  0
 15 23  1  0  0  0  0
 15 28  1  0  0  0  0
 15 45  1  0  0  0  0
 16 46  1  0  0  0  0
 16 47  1  0  0  0  0
 17 48  1  0  0  0  0
 17 49  1  0  0  0  0
 18 23  1  0  0  0  0
 18 50  1  0  0  0  0
 18 51  1  0  0  0  0
 19 26  1  0  0  0  0
 19 29  1  0  0  0  0
 19 30  1  0  0  0  0
 20 52  1  0  0  0  0
 20 53  1  0  0  0  0
 20 54  1  0  0  0  0
 21 27  1  0  0  0  0
 21 55  1  0  0  0  0
 21 56  1  0  0  0  0
 22 57  1  0  0  0  0
 22 58  1  0  0  0  0
 22 59  1  0  0  0  0
 23 60  1  0  0  0  0
 23 61  1  0  0  0  0
 24 62  1  0  0  0  0
 24 63  1  0  0  0  0
 24 64  1  0  0  0  0
 25 65  1  0  0  0  0
 25 66  1  0  0  0  0
 26 27  1  0  0  0  0
 26 67  1  0  0  0  0
 27 68  1  0  0  0  0
 27 69  1  0  0  0  0
 28 31  1  0  0  0  0
 28 32  1  0  0  0  0
 28 70  1  0  0  0  0
 29 71  1  0  0  0  0
 29 72  1  0  0  0  0
 29 73  1  0  0  0  0
 30 74  1  0  0  0  0
 30 75  1  0  0  0  0
 30 76  1  0  0  0  0
 31 77  1  0  0  0  0
 31 78  1  0  0  0  0
 31 79  1  0  0  0  0
 32 80  1  0  0  0  0
 32 81  1  0  0  0  0
 32 82  1  0  0  0  0
M  END
> <PUBCHEM_COMPOUND_CID>
10527286

> <PUBCHEM_CONFORMER_RMSD>
0.8

> <PUBCHEM_CONFORMER_DIVERSEORDER>
1

> <PUBCHEM_MMFF94_PARTIAL_CHARGES>
6
1 -0.68
2 -0.68
25 0.28
26 0.28
83 0.4
84 0.4

> <PUBCHEM_EFFECTIVE_ROTOR_COUNT>
4.6

> <PUBCHEM_PHARMACOPHORE_FEATURES>
11
1 1 acceptor
1 1 donor
1 2 acceptor
1 2 donor
3 19 29 30 hydrophobe
3 28 31 32 hydrophobe
5 7 9 15 18 23 rings
6 3 4 5 6 12 13 rings
6 3 5 7 9 11 16 rings
6 4 6 8 10 14 17 rings
6 8 10 19 21 26 27 rings

> <PUBCHEM_HEAVY_ATOM_COUNT>
32

> <PUBCHEM_ATOM_DEF_STEREO_COUNT>
10

> <PUBCHEM_ATOM_UDEF_STEREO_COUNT>
0

> <PUBCHEM_BOND_DEF_STEREO_COUNT>
0

> <PUBCHEM_BOND_UDEF_STEREO_COUNT>
0

> <PUBCHEM_ISOTOPIC_ATOM_COUNT>
0

> <PUBCHEM_COMPONENT_COUNT>
1

> <PUBCHEM_CACTVS_TAUTO_COUNT>
1

> <PUBCHEM_CONFORMER_ID>
00A0A23600000001

> <PUBCHEM_MMFF94_ENERGY>
169.9409

> <PUBCHEM_FEATURE_SELFOVERLAP>
55.916

> <PUBCHEM_SHAPE_FINGERPRINT>
10554248 39 18342165632047259741
10595046 47 18412259575432256893
10906281 52 17846233158738814499
11135609 187 18271524324539431224
11578080 2 14491912418319071916
12107183 9 17977099059479122768
12166972 35 18408888429557925436
12236239 1 18131912658791317030
12403260 363 18340483361596961480
12422481 6 17967248685098526453
12788726 201 17346609538564096897
13224815 77 18131356297555078562
13533116 47 18041556941174306378
13583140 156 18040727943338862152
13782708 43 17822007562714040491
13785724 45 17907859505586909494
13811026 1 18336542806855358947
14251764 38 18338240353618942865
14528608 73 18343022215824324500
14739800 52 18271234036806475480
14787075 74 18342174483816678371
14790565 3 18342178885920812357
14856354 85 16486978436209014661
15183329 4 18342453721284128957
15196674 1 18341894086924192677
15788980 27 18040721325147686339
15840311 113 18334861580905222925
17349148 13 17846498119117794739
17844677 252 18334862692737210781
18608769 82 18195529418649918179
18681886 176 18201997721265433394
20511986 3 18342163501617087300
20715895 44 18195804072664564213
21033648 144 18334849563032665596
21033648 29 17023172825649596749
21267235 1 18271535233835107158
21315764 268 18260823753013280349
21859007 373 17460301162832780725
22149856 69 17703801305991352547
23522609 53 17915766308487269201
23559900 14 18201163140015586166
23569914 2 17539636552820908949
23569943 247 16952237716914608058
2838139 119 18341890813853535045
3004659 81 18412262809758895506
335352 9 18412829088913319398
3411729 13 18409445930052182392
34797466 226 17917438643548718751
3493558 16 18410299111566744805
350125 39 18411699890276745612
3680242 22 18339361855447210570
4058900 60 18041851739476802108
4073 2 18114748251452822194
4325135 7 18202843253922367359
4340502 62 17967529120988322746
474 4 18333733550393667374
5104073 3 18409170995899051715
5283173 99 18336262341111995509
6036956 94 16392389945826808572
6086070 43 17898831483854859884
67856867 119 18411132533143182760

> <PUBCHEM_SHAPE_MULTIPOLES>
646.81
14.73
3.1
1.43
6
0.83
0.05
4.11
0.41
-3.43
-0.05
0.24
-0.22
-0.94

> <PUBCHEM_SHAPE_SELFOVERLAP>
1360.476

> <PUBCHEM_SHAPE_VOLUME>
363.1

> <PUBCHEM_COORDINATE_TYPE>
2
5
10

$$$$
