101774202
  -OEChem-08282006153D

 62 65  0     1  0  0  0  0  0999 V2000
   -1.3232   -0.2974   -0.1006 O   0  0  0  0  0  0  0  0  0  0  0  0
    1.1666    2.2713    0.7833 O   0  0  0  0  0  0  0  0  0  0  0  0
   -3.9158   -1.5871   -0.9140 O   0  0  0  0  0  0  0  0  0  0  0  0
    0.6373    1.7414   -2.4103 O   0  0  0  0  0  0  0  0  0  0  0  0
   -5.4044    0.1863   -1.4093 O   0  0  0  0  0  0  0  0  0  0  0  0
    1.8245    3.6590   -0.9423 O   0  0  0  0  0  0  0  0  0  0  0  0
    0.9552   -0.8159    0.8433 C   0  0  2  0  0  0  0  0  0  0  0  0
   -0.2558    0.2723    0.7165 C   0  0  1  0  0  0  0  0  0  0  0  0
    1.5626   -1.0870   -0.5862 C   0  0  2  0  0  0  0  0  0  0  0  0
    2.6601   -2.2255   -0.6701 C   0  0  0  0  0  0  0  0  0  0  0  0
    0.2175    1.5811   -0.0214 C   0  0  2  0  0  0  0  0  0  0  0  0
    0.4325   -2.1703    1.4279 C   0  0  0  0  0  0  0  0  0  0  0  0
   -0.9331    0.5823    2.0739 C   0  0  0  0  0  0  0  0  0  0  0  0
   -2.5364   -0.4602    0.6618 C   0  0  1  0  0  0  0  0  0  0  0  0
    2.0325    0.2066   -1.2637 C   0  0  0  0  0  0  0  0  0  0  0  0
   -2.1740   -0.2818    2.1197 C   0  0  0  0  0  0  0  0  0  0  0  0
    2.4681   -3.2987    0.4266 C   0  0  0  0  0  0  0  0  0  0  0  0
    1.0167   -3.4485    0.8276 C   0  0  0  0  0  0  0  0  0  0  0  0
    2.0657   -0.3077    1.8094 C   0  0  0  0  0  0  0  0  0  0  0  0
    0.9189    1.2129   -1.3331 C   0  0  0  0  0  0  0  0  0  0  0  0
   -3.6228    0.4816    0.1752 C   0  0  0  0  0  0  0  0  0  0  0  0
    2.5272   -2.9195   -2.0522 C   0  0  0  0  0  0  0  0  0  0  0  0
    4.1146   -1.7120   -0.5783 C   0  0  0  0  0  0  0  0  0  0  0  0
   -0.8952    2.5869   -0.3601 C   0  0  0  0  0  0  0  0  0  0  0  0
   -3.1733   -1.7974    0.3020 C   0  0  0  0  0  0  0  0  0  0  0  0
   -4.0649   -0.1761   -1.1202 C   0  0  1  0  0  0  0  0  0  0  0  0
    1.6728    3.4228    0.2486 C   0  0  0  0  0  0  0  0  0  0  0  0
    2.0261    4.3805    1.3459 C   0  0  0  0  0  0  0  0  0  0  0  0
    0.7092   -1.4450   -1.1839 H   0  0  0  0  0  0  0  0  0  0  0  0
   -0.6401   -2.2726    1.2942 H   0  0  0  0  0  0  0  0  0  0  0  0
    0.5865   -2.1855    2.5150 H   0  0  0  0  0  0  0  0  0  0  0  0
   -1.2430    1.6289    2.1408 H   0  0  0  0  0  0  0  0  0  0  0  0
   -0.3071    0.4109    2.9502 H   0  0  0  0  0  0  0  0  0  0  0  0
    2.3502   -0.0003   -2.2921 H   0  0  0  0  0  0  0  0  0  0  0  0
    2.8794    0.6759   -0.7558 H   0  0  0  0  0  0  0  0  0  0  0  0
   -1.9482   -1.2391    2.6000 H   0  0  0  0  0  0  0  0  0  0  0  0
   -2.9717    0.1770    2.7133 H   0  0  0  0  0  0  0  0  0  0  0  0
    3.0586   -3.0621    1.3191 H   0  0  0  0  0  0  0  0  0  0  0  0
    2.8491   -4.2691    0.0830 H   0  0  0  0  0  0  0  0  0  0  0  0
    0.9123   -4.2653    1.5517 H   0  0  0  0  0  0  0  0  0  0  0  0
    0.4228   -3.7425   -0.0469 H   0  0  0  0  0  0  0  0  0  0  0  0
    2.6503    0.5170    1.3995 H   0  0  0  0  0  0  0  0  0  0  0  0
    2.7821   -1.0933    2.0595 H   0  0  0  0  0  0  0  0  0  0  0  0
    1.6655    0.0274    2.7686 H   0  0  0  0  0  0  0  0  0  0  0  0
   -3.3215    1.5156    0.0171 H   0  0  0  0  0  0  0  0  0  0  0  0
   -4.4516    0.5071    0.8954 H   0  0  0  0  0  0  0  0  0  0  0  0
    3.2712   -3.7161   -2.1699 H   0  0  0  0  0  0  0  0  0  0  0  0
    1.5382   -3.3733   -2.1795 H   0  0  0  0  0  0  0  0  0  0  0  0
    4.8228   -2.5496   -0.5723 H   0  0  0  0  0  0  0  0  0  0  0  0
    2.6766   -2.2117   -2.8744 H   0  0  0  0  0  0  0  0  0  0  0  0
    4.3816   -1.0809   -1.4326 H   0  0  0  0  0  0  0  0  0  0  0  0
    4.2896   -1.1346    0.3332 H   0  0  0  0  0  0  0  0  0  0  0  0
   -1.4064    2.9550    0.5335 H   0  0  0  0  0  0  0  0  0  0  0  0
   -1.6290    2.1393   -1.0361 H   0  0  0  0  0  0  0  0  0  0  0  0
   -0.5497    3.4849   -0.8824 H   0  0  0  0  0  0  0  0  0  0  0  0
   -3.8850   -2.1313    1.0650 H   0  0  0  0  0  0  0  0  0  0  0  0
   -2.4501   -2.5942    0.1124 H   0  0  0  0  0  0  0  0  0  0  0  0
   -3.4299    0.1139   -1.9636 H   0  0  0  0  0  0  0  0  0  0  0  0
   -5.9036    0.2377   -0.5777 H   0  0  0  0  0  0  0  0  0  0  0  0
    1.1302    4.6331    1.9186 H   0  0  0  0  0  0  0  0  0  0  0  0
    2.4319    5.2979    0.9102 H   0  0  0  0  0  0  0  0  0  0  0  0
    2.7856    3.9365    1.9942 H   0  0  0  0  0  0  0  0  0  0  0  0
  1  8  1  0  0  0  0
  1 14  1  0  0  0  0
  2 11  1  0  0  0  0
  2 27  1  0  0  0  0
  3 25  1  0  0  0  0
  3 26  1  0  0  0  0
  4 20  2  0  0  0  0
  5 26  1  0  0  0  0
  5 59  1  0  0  0  0
  6 27  2  0  0  0  0
  7  8  1  0  0  0  0
  7  9  1  0  0  0  0
  7 12  1  0  0  0  0
  7 19  1  0  0  0  0
  8 11  1  0  0  0  0
  8 13  1  0  0  0  0
  9 10  1  0  0  0  0
  9 15  1  0  0  0  0
  9 29  1  0  0  0  0
 10 17  1  0  0  0  0
 10 22  1  0  0  0  0
 10 23  1  0  0  0  0
 11 20  1  0  0  0  0
 11 24  1  0  0  0  0
 12 18  1  0  0  0  0
 12 30  1  0  0  0  0
 12 31  1  0  0  0  0
 13 16  1  0  0  0  0
 13 32  1  0  0  0  0
 13 33  1  0  0  0  0
 14 16  1  0  0  0  0
 14 21  1  0  0  0  0
 14 25  1  0  0  0  0
 15 20  1  0  0  0  0
 15 34  1  0  0  0  0
 15 35  1  0  0  0  0
 16 36  1  0  0  0  0
 16 37  1  0  0  0  0
 17 18  1  0  0  0  0
 17 38  1  0  0  0  0
 17 39  1  0  0  0  0
 18 40  1  0  0  0  0
 18 41  1  0  0  0  0
 19 42  1  0  0  0  0
 19 43  1  0  0  0  0
 19 44  1  0  0  0  0
 21 26  1  0  0  0  0
 21 45  1  0  0  0  0
 21 46  1  0  0  0  0
 22 47  1  0  0  0  0
 22 48  1  0  0  0  0
 22 50  1  0  0  0  0
 23 49  1  0  0  0  0
 23 51  1  0  0  0  0
 23 52  1  0  0  0  0
 24 53  1  0  0  0  0
 24 54  1  0  0  0  0
 24 55  1  0  0  0  0
 25 56  1  0  0  0  0
 25 57  1  0  0  0  0
 26 58  1  0  0  0  0
 27 28  1  0  0  0  0
 28 60  1  0  0  0  0
 28 61  1  0  0  0  0
 28 62  1  0  0  0  0
M  END
> <PUBCHEM_COMPOUND_CID>
101774202

> <PUBCHEM_CONFORMER_RMSD>
0.8

> <PUBCHEM_CONFORMER_DIVERSEORDER>
1
4
2
3

> <PUBCHEM_MMFF94_PARTIAL_CHARGES>
16
1 -0.56
11 0.34
14 0.28
15 0.06
2 -0.43
20 0.45
25 0.28
26 0.56
27 0.66
28 0.06
3 -0.56
4 -0.57
5 -0.68
59 0.4
6 -0.57
8 0.28

> <PUBCHEM_EFFECTIVE_ROTOR_COUNT>
4.6

> <PUBCHEM_PHARMACOPHORE_FEATURES>
11
1 1 acceptor
1 3 acceptor
1 4 acceptor
1 5 acceptor
1 5 donor
1 6 acceptor
3 10 22 23 hydrophobe
5 1 8 13 14 16 rings
5 3 14 21 25 26 rings
6 7 8 9 11 15 20 rings
6 7 9 10 12 17 18 rings

> <PUBCHEM_HEAVY_ATOM_COUNT>
28

> <PUBCHEM_ATOM_DEF_STEREO_COUNT>
6

> <PUBCHEM_ATOM_UDEF_STEREO_COUNT>
0

> <PUBCHEM_BOND_DEF_STEREO_COUNT>
0

> <PUBCHEM_BOND_UDEF_STEREO_COUNT>
0

> <PUBCHEM_ISOTOPIC_ATOM_COUNT>
0

> <PUBCHEM_COMPONENT_COUNT>
1

> <PUBCHEM_CACTVS_TAUTO_COUNT>
4

> <PUBCHEM_CONFORMER_ID>
0610F37A00000001

> <PUBCHEM_MMFF94_ENERGY>
124.0188

> <PUBCHEM_FEATURE_SELFOVERLAP>
55.909

> <PUBCHEM_SHAPE_FINGERPRINT>
10165383 225 17035064190001661257
10764073 3 16885484235767610016
10930396 42 18190998254528740328
10948715 1 17905598157427279608
11115154 58 18196364824338613093
11370993 70 17978220887762437865
11578080 2 18056743343868146216
11582403 64 17465635181222310081
121448 382 17407957051844401457
12156800 1 13194783186096915978
12160290 23 17325505306232461932
12553582 1 18193289502425250043
12788726 201 17690006630422423953
13004483 165 17977664212592907195
13134695 92 18411708655439671116
13140716 1 17834986404558878464
13149001 5 18115328767880915514
133893 2 18263663894447569313
13681431 1 18335708234258586992
13911987 19 18115893865929888910
14081887 123 17977377232037660106
14181834 199 18261947565307203265
14787075 74 18411429393125362078
14955137 171 17980794569984787875
15664445 248 18341326691526912010
15852999 172 17904770229550739208
16945 1 18269009702828132288
17357779 13 18261962821126224478
17492 54 18263379104278482110
17980427 23 17846506906478503176
1813 80 18199759046212564655
20197701 30 17909254020968438192
20567600 347 17905601451957202879
20600515 1 17822569391849354706
22112679 90 17912395059210818888
22149856 69 18043261331159995523
23419403 2 17028480164224613664
23557571 272 18123187892850559058
23559900 14 18343293795222687403
238 59 17897733308263073831
25222932 49 14515138248298731108
26353 1 18265341611699679116
2748010 2 17897462798126490219
35225 105 17260458700644005960
4017518 198 17842276150152100780
4280585 95 18339634551864520410
4340502 62 17835249222292828243
46194498 28 18337939174085925303
463206 1 18336836277470700515
495365 180 18262225742271562125
513532 50 17970881502087416823
57527573 199 15291764147445418517
5845 1 18191026694736557096
59444896 2 17261542716372968354
6438718 38 17039263938131055162
6443956 14 18409727335533943280
6669772 16 17839466927353646468
70251023 43 18411424994947202819
81228 2 17537728689771063626
9862522 239 17329992906985277570
9981440 41 17838051872514498745

> <PUBCHEM_SHAPE_MULTIPOLES>
541.01
6.19
4.72
1.96
6.16
4.55
0.02
-4.73
2.64
-4.03
-0.43
0
0.02
0.26

> <PUBCHEM_SHAPE_SELFOVERLAP>
1153.461

> <PUBCHEM_SHAPE_VOLUME>
300.3

> <PUBCHEM_COORDINATE_TYPE>
2
5
10

$$$$
