70904801
  -OEChem-08282007383D

 53 54  0     1  0  0  0  0  0999 V2000
    0.2638    1.2097    0.7705 O   0  0  0  0  0  0  0  0  0  0  0  0
   -3.2934    1.7645    1.2464 O   0  0  0  0  0  0  0  0  0  0  0  0
    6.6725    0.3111    0.4790 O   0  0  0  0  0  0  0  0  0  0  0  0
   -1.7904   -0.3651    0.0792 C   0  0  1  0  0  0  0  0  0  0  0  0
   -2.8967   -1.4865    0.1126 C   0  0  0  0  0  0  0  0  0  0  0  0
   -0.3444   -0.8418   -0.3040 C   0  0  1  0  0  0  0  0  0  0  0  0
   -2.3628   -2.7431    0.8418 C   0  0  0  0  0  0  0  0  0  0  0  0
    0.0313   -2.1417    0.4350 C   0  0  0  0  0  0  0  0  0  0  0  0
   -1.0227   -3.2307    0.3100 C   0  0  0  0  0  0  0  0  0  0  0  0
   -2.2174    0.8791   -0.7239 C   0  0  0  0  0  0  0  0  0  0  0  0
   -4.1222   -0.9847    0.9193 C   0  0  0  0  0  0  0  0  0  0  0  0
   -3.4268   -1.8866   -1.2794 C   0  0  0  0  0  0  0  0  0  0  0  0
   -0.0902   -0.9915   -1.8127 C   0  0  0  0  0  0  0  0  0  0  0  0
    0.6458    0.1931    0.1929 C   0  0  0  0  0  0  0  0  0  0  0  0
    2.1121   -0.1069   -0.0648 C   0  0  0  0  0  0  0  0  0  0  0  0
   -3.2408    1.7062    0.0190 C   0  0  0  0  0  0  0  0  0  0  0  0
    3.0321    1.0070    0.4317 C   0  0  0  0  0  0  0  0  0  0  0  0
   -4.2092    2.4675   -0.8712 C   0  0  0  0  0  0  0  0  0  0  0  0
    4.4811    0.6955    0.1598 C   0  0  0  0  0  0  0  0  0  0  0  0
   -5.1982    3.3052   -0.0809 C   0  0  0  0  0  0  0  0  0  0  0  0
    5.0741    0.4269   -1.0969 C   0  0  0  0  0  0  0  0  0  0  0  0
    5.4948    0.6130    1.0859 C   0  0  0  0  0  0  0  0  0  0  0  0
    6.4078    0.1995   -0.8493 C   0  0  0  0  0  0  0  0  0  0  0  0
   -1.7058   -0.0599    1.1342 H   0  0  0  0  0  0  0  0  0  0  0  0
   -3.0914   -3.5611    0.7747 H   0  0  0  0  0  0  0  0  0  0  0  0
   -2.2504   -2.5238    1.9126 H   0  0  0  0  0  0  0  0  0  0  0  0
    0.1948   -1.9350    1.5021 H   0  0  0  0  0  0  0  0  0  0  0  0
    0.9722   -2.5608    0.0584 H   0  0  0  0  0  0  0  0  0  0  0  0
   -1.1132   -3.5591   -0.7308 H   0  0  0  0  0  0  0  0  0  0  0  0
   -0.7049   -4.1077    0.8863 H   0  0  0  0  0  0  0  0  0  0  0  0
   -2.6067    0.6037   -1.7070 H   0  0  0  0  0  0  0  0  0  0  0  0
   -1.3829    1.5592   -0.9220 H   0  0  0  0  0  0  0  0  0  0  0  0
   -2.6670   -2.3356   -1.9172 H   0  0  0  0  0  0  0  0  0  0  0  0
   -4.2166   -2.6424   -1.1785 H   0  0  0  0  0  0  0  0  0  0  0  0
   -3.8804   -1.0489   -1.8162 H   0  0  0  0  0  0  0  0  0  0  0  0
   -4.8052   -1.8202    1.1225 H   0  0  0  0  0  0  0  0  0  0  0  0
   -3.8339   -0.5834    1.8961 H   0  0  0  0  0  0  0  0  0  0  0  0
   -4.7205   -0.2509    0.3744 H   0  0  0  0  0  0  0  0  0  0  0  0
   -0.8787   -1.5465   -2.3172 H   0  0  0  0  0  0  0  0  0  0  0  0
    0.8352   -1.5372   -2.0287 H   0  0  0  0  0  0  0  0  0  0  0  0
   -0.0147   -0.0167   -2.3086 H   0  0  0  0  0  0  0  0  0  0  0  0
    2.3952   -1.0323    0.4445 H   0  0  0  0  0  0  0  0  0  0  0  0
    2.2724   -0.2338   -1.1384 H   0  0  0  0  0  0  0  0  0  0  0  0
    2.8831    1.1624    1.5077 H   0  0  0  0  0  0  0  0  0  0  0  0
    2.7776    1.9541   -0.0607 H   0  0  0  0  0  0  0  0  0  0  0  0
   -4.7554    1.7423   -1.4837 H   0  0  0  0  0  0  0  0  0  0  0  0
   -3.6261    3.1175   -1.5320 H   0  0  0  0  0  0  0  0  0  0  0  0
   -4.6802    4.0453    0.5379 H   0  0  0  0  0  0  0  0  0  0  0  0
   -5.8026    2.6776    0.5823 H   0  0  0  0  0  0  0  0  0  0  0  0
   -5.8736    3.8374   -0.7577 H   0  0  0  0  0  0  0  0  0  0  0  0
    4.5952    0.4029   -2.0654 H   0  0  0  0  0  0  0  0  0  0  0  0
    5.5414    0.7349    2.1584 H   0  0  0  0  0  0  0  0  0  0  0  0
    7.2543   -0.0403   -1.4759 H   0  0  0  0  0  0  0  0  0  0  0  0
  1 14  2  0  0  0  0
  2 16  2  0  0  0  0
  3 22  1  0  0  0  0
  3 23  1  0  0  0  0
  4  5  1  0  0  0  0
  4  6  1  0  0  0  0
  4 10  1  0  0  0  0
  4 24  1  0  0  0  0
  5  7  1  0  0  0  0
  5 11  1  0  0  0  0
  5 12  1  0  0  0  0
  6  8  1  0  0  0  0
  6 13  1  0  0  0  0
  6 14  1  0  0  0  0
  7  9  1  0  0  0  0
  7 25  1  0  0  0  0
  7 26  1  0  0  0  0
  8  9  1  0  0  0  0
  8 27  1  0  0  0  0
  8 28  1  0  0  0  0
  9 29  1  0  0  0  0
  9 30  1  0  0  0  0
 10 16  1  0  0  0  0
 10 31  1  0  0  0  0
 10 32  1  0  0  0  0
 11 36  1  0  0  0  0
 11 37  1  0  0  0  0
 11 38  1  0  0  0  0
 12 33  1  0  0  0  0
 12 34  1  0  0  0  0
 12 35  1  0  0  0  0
 13 39  1  0  0  0  0
 13 40  1  0  0  0  0
 13 41  1  0  0  0  0
 14 15  1  0  0  0  0
 15 17  1  0  0  0  0
 15 42  1  0  0  0  0
 15 43  1  0  0  0  0
 16 18  1  0  0  0  0
 17 19  1  0  0  0  0
 17 44  1  0  0  0  0
 17 45  1  0  0  0  0
 18 20  1  0  0  0  0
 18 46  1  0  0  0  0
 18 47  1  0  0  0  0
 19 21  1  0  0  0  0
 19 22  2  0  0  0  0
 20 48  1  0  0  0  0
 20 49  1  0  0  0  0
 20 50  1  0  0  0  0
 21 23  2  0  0  0  0
 21 51  1  0  0  0  0
 22 52  1  0  0  0  0
 23 53  1  0  0  0  0
M  END
> <PUBCHEM_COMPOUND_CID>
70904801

> <PUBCHEM_CONFORMER_RMSD>
1

> <PUBCHEM_CONFORMER_DIVERSEORDER>
1
24
7
88
170
136
105
12
159
125
138
72
133
173
56
171
120
152
91
70
42
106
114
149
80
128
108
93
34
104
44
167
18
78
96
49
117
69
23
134
64
15
131
166
145
135
36
174
98
52
28
59
38
176
86
146
160
153
143
40
141
142
55
32
177
3
43
50
47
168
92
66
83
17
165
162
58
89
4
113
85
121
73
112
35
148
16
95
71
158
124
26
102
11
84
122
118
54
14
20
157
94
151
144
97
27
137
39
109
129
115
25
154
163
164
63
68
67
8
77
126
65
82
111
81
99
74
79
175
132
2
123
41
161
130
13
75
150
156
147
9
48
30
37
62
61
51
172
139
155
107
5
53
101
57
90
76
33
103
100
127
119
60
31
169
6
21
46
45
140
19
10
87
29
116
110
22

> <PUBCHEM_MMFF94_PARTIAL_CHARGES>
17
1 -0.57
10 0.06
14 0.45
15 0.06
16 0.45
17 0.18
18 0.06
19 -0.18
2 -0.57
21 -0.15
22 -0.01
23 -0.01
3 -0.28
51 0.15
52 0.15
53 0.15
6 0.06

> <PUBCHEM_EFFECTIVE_ROTOR_COUNT>
8.2

> <PUBCHEM_PHARMACOPHORE_FEATURES>
7
1 1 acceptor
1 2 acceptor
1 20 hydrophobe
1 3 acceptor
3 5 11 12 hydrophobe
5 3 19 21 22 23 rings
6 4 5 6 7 8 9 rings

> <PUBCHEM_HEAVY_ATOM_COUNT>
23

> <PUBCHEM_ATOM_DEF_STEREO_COUNT>
2

> <PUBCHEM_ATOM_UDEF_STEREO_COUNT>
0

> <PUBCHEM_BOND_DEF_STEREO_COUNT>
0

> <PUBCHEM_BOND_UDEF_STEREO_COUNT>
0

> <PUBCHEM_ISOTOPIC_ATOM_COUNT>
0

> <PUBCHEM_COMPONENT_COUNT>
1

> <PUBCHEM_CACTVS_TAUTO_COUNT>
6

> <PUBCHEM_CONFORMER_ID>
0439EBE100000001

> <PUBCHEM_MMFF94_ENERGY>
59.2491

> <PUBCHEM_FEATURE_SELFOVERLAP>
35.522

> <PUBCHEM_SHAPE_FINGERPRINT>
10165383 225 18337390427389644669
10411042 1 17904485456694007051
105312 117 18335416824959406013
10835480 77 18201995552402401472
10912923 1 17531242903219041280
11273773 42 16952558985744023612
11315181 36 17895753015138859708
12107183 9 18044363934441096338
12236239 1 17240762930165737222
12293681 160 17845366653113341529
12390115 104 18339932523831207497
12403259 415 18201998867562921752
12616971 3 17167863059055982180
12788726 201 18338499946354342163
13009979 54 17606694783529790655
13073987 5 18262231231656270840
13140716 1 18118120273648889547
13540713 4 18193012430470440995
13540713 5 18192127340605444715
13675066 3 18059575862526391584
14142880 1 18260261937426707637
14251751 93 18272647978151295854
15021287 119 17095242532218154644
15042514 8 18120661494065875715
15230672 131 18189619350767730518
17093844 174 18343297081347403216
17844677 252 18337957912981050192
17980427 23 17240495693084760645
17980427 26 17905030475073903031
18915476 22 17274273737924625039
19489759 90 18341328972317907718
20554085 129 17985523612055447249
20645477 70 16916799496138268510
21033648 29 17774709948847973816
21236236 1 18411417327966180341
21279426 13 18270971129089221974
21756936 100 18411692184250588388
22182313 1 17845113838347336622
23402539 116 18340483486626098175
23522609 53 17386587812095421828
23557571 272 18342187677987951444
23559900 14 18194115455291404768
25147074 1 18190160343919530387
283562 15 18408880768212131483
350125 39 18408889563993566553
3759504 43 18408039598043757301
4015057 19 16630516384585171064
4214541 1 18409448120221674824
5104073 3 18188209797359377690
5283173 99 18340484564863453560
5385378 56 18193562159902342449
559249 180 18410289195283187218
56616090 163 18340489958714272413
56616090 46 18410578344949464782
59755656 215 18413388747956908399
59755656 520 18336540530433112533
6327066 14 18188484658540464237
7226269 152 18201722838583780000
77188 2 17543917162393911795
90127 26 18271243936895632872
9981440 41 18334860485525006371

> <PUBCHEM_SHAPE_MULTIPOLES>
455.72
13.16
3.19
1.2
22.57
0.24
0.27
-7.97
0.01
-6.44
-0.24
0.03
0.13
0.38

> <PUBCHEM_SHAPE_SELFOVERLAP>
936.373

> <PUBCHEM_SHAPE_VOLUME>
260.3

> <PUBCHEM_COORDINATE_TYPE>
2
5
10

$$$$
