5319964
  -OEChem-08282013123D

 33 34  0     0  0  0  0  0  0999 V2000
   -1.1106    1.3811    0.4715 O   0  0  0  0  0  0  0  0  0  0  0  0
    1.2020   -2.7980    0.0533 O   0  0  0  0  0  0  0  0  0  0  0  0
    1.8121    0.4321   -1.5673 O   0  0  0  0  0  0  0  0  0  0  0  0
   -2.2367    3.3661    0.6628 O   0  0  0  0  0  0  0  0  0  0  0  0
    0.0532   -0.7059    0.2654 C   0  0  0  0  0  0  0  0  0  0  0  0
   -1.1344    0.0115    0.1382 C   0  0  0  0  0  0  0  0  0  0  0  0
    1.3011   -0.0373    0.7398 C   0  0  0  0  0  0  0  0  0  0  0  0
   -2.3105   -0.5904   -0.3015 C   0  0  0  0  0  0  0  0  0  0  0  0
    0.0607   -2.0614   -0.0565 C   0  0  0  0  0  0  0  0  0  0  0  0
   -2.2941   -1.9495   -0.6223 C   0  0  0  0  0  0  0  0  0  0  0  0
   -1.1097   -2.6820   -0.4994 C   0  0  0  0  0  0  0  0  0  0  0  0
    2.1464    0.5540   -0.3874 C   0  0  0  0  0  0  0  0  0  0  0  0
   -3.5130    0.2177   -0.4106 C   0  0  0  0  0  0  0  0  0  0  0  0
   -3.4821    1.5145   -0.0935 C   0  0  0  0  0  0  0  0  0  0  0  0
    3.4114    1.2981   -0.0585 C   0  0  0  0  0  0  0  0  0  0  0  0
   -2.2491    2.1745    0.3742 C   0  0  0  0  0  0  0  0  0  0  0  0
    4.1847    1.8493   -1.2203 C   0  0  0  0  0  0  0  0  0  0  0  0
    1.4437   -3.4348    1.3062 C   0  0  0  0  0  0  0  0  0  0  0  0
    3.8249    1.4605    1.2060 C   0  0  0  0  0  0  0  0  0  0  0  0
    1.9275   -0.7379    1.3005 H   0  0  0  0  0  0  0  0  0  0  0  0
    1.0451    0.7658    1.4411 H   0  0  0  0  0  0  0  0  0  0  0  0
   -3.1939   -2.4514   -0.9690 H   0  0  0  0  0  0  0  0  0  0  0  0
   -1.1071   -3.7392   -0.7524 H   0  0  0  0  0  0  0  0  0  0  0  0
   -4.4309   -0.2474   -0.7524 H   0  0  0  0  0  0  0  0  0  0  0  0
   -4.3755    2.1242   -0.1724 H   0  0  0  0  0  0  0  0  0  0  0  0
    3.5716    2.5590   -1.7857 H   0  0  0  0  0  0  0  0  0  0  0  0
    4.4934    1.0415   -1.8920 H   0  0  0  0  0  0  0  0  0  0  0  0
    5.0895    2.3765   -0.8995 H   0  0  0  0  0  0  0  0  0  0  0  0
    2.5014   -3.7075    1.3541 H   0  0  0  0  0  0  0  0  0  0  0  0
    0.8435   -4.3474    1.3749 H   0  0  0  0  0  0  0  0  0  0  0  0
    1.2108   -2.7787    2.1510 H   0  0  0  0  0  0  0  0  0  0  0  0
    4.7411    2.0013    1.4233 H   0  0  0  0  0  0  0  0  0  0  0  0
    3.2874    1.0725    2.0627 H   0  0  0  0  0  0  0  0  0  0  0  0
  1  6  1  0  0  0  0
  1 16  1  0  0  0  0
  2  9  1  0  0  0  0
  2 18  1  0  0  0  0
  3 12  2  0  0  0  0
  4 16  2  0  0  0  0
  5  6  1  0  0  0  0
  5  7  1  0  0  0  0
  5  9  2  0  0  0  0
  6  8  2  0  0  0  0
  7 12  1  0  0  0  0
  7 20  1  0  0  0  0
  7 21  1  0  0  0  0
  8 10  1  0  0  0  0
  8 13  1  0  0  0  0
  9 11  1  0  0  0  0
 10 11  2  0  0  0  0
 10 22  1  0  0  0  0
 11 23  1  0  0  0  0
 12 15  1  0  0  0  0
 13 14  2  0  0  0  0
 13 24  1  0  0  0  0
 14 16  1  0  0  0  0
 14 25  1  0  0  0  0
 15 17  1  0  0  0  0
 15 19  2  0  0  0  0
 17 26  1  0  0  0  0
 17 27  1  0  0  0  0
 17 28  1  0  0  0  0
 18 29  1  0  0  0  0
 18 30  1  0  0  0  0
 18 31  1  0  0  0  0
 19 32  1  0  0  0  0
 19 33  1  0  0  0  0
M  END
> <PUBCHEM_COMPOUND_CID>
5319964

> <PUBCHEM_CONFORMER_RMSD>
0.6

> <PUBCHEM_CONFORMER_DIVERSEORDER>
2
15
27
42
16
41
49
14
17
13
34
22
32
51
26
47
43
44
10
11
39
36
7
9
31
23
24
48
3
40
33
25
45
4
50
29
28
8
5
38
6
18
35
1
12
21
46
20
19
30
37

> <PUBCHEM_MMFF94_PARTIAL_CHARGES>
25
1 -0.23
10 -0.15
11 -0.15
12 0.49
13 -0.18
14 -0.14
15 -0.12
16 0.71
17 0.14
18 0.28
19 -0.3
2 -0.36
22 0.15
23 0.15
24 0.15
25 0.15
3 -0.57
32 0.15
33 0.15
4 -0.57
5 -0.14
6 0.08
7 0.2
8 0.03
9 0.08

> <PUBCHEM_EFFECTIVE_ROTOR_COUNT>
4

> <PUBCHEM_PHARMACOPHORE_FEATURES>
5
1 2 acceptor
1 3 acceptor
1 4 acceptor
6 1 6 8 13 14 16 rings
6 5 6 8 9 10 11 rings

> <PUBCHEM_HEAVY_ATOM_COUNT>
19

> <PUBCHEM_ATOM_DEF_STEREO_COUNT>
0

> <PUBCHEM_ATOM_UDEF_STEREO_COUNT>
0

> <PUBCHEM_BOND_DEF_STEREO_COUNT>
0

> <PUBCHEM_BOND_UDEF_STEREO_COUNT>
0

> <PUBCHEM_ISOTOPIC_ATOM_COUNT>
0

> <PUBCHEM_COMPONENT_COUNT>
1

> <PUBCHEM_CACTVS_TAUTO_COUNT>
2

> <PUBCHEM_CONFORMER_ID>
00512D1C00000002

> <PUBCHEM_MMFF94_ENERGY>
64.1525

> <PUBCHEM_FEATURE_SELFOVERLAP>
25.4

> <PUBCHEM_SHAPE_FINGERPRINT>
10498660 4 18412821413015977013
11582403 64 16339713134070799090
11640471 11 17822578334071764332
11725454 13 16915348179027591560
12173636 292 18413383246029851813
12788726 201 17538007253161355010
13140716 1 18195245757397320689
14181834 199 18120374246235757726
14614273 12 18260818311400219749
14790565 3 18267877253840565833
16752209 62 18193549193554220722
16945 1 18341323466275290275
17134986 127 18195255403440459541
17980427 23 17552609492873350135
18186145 218 17917723443262697784
18785283 64 17833849170128249385
20510252 161 18196376033390313688
20671657 1 18193559969410868990
21501502 16 18197211447959054433
21524375 3 18409731733707003040
2334 1 18268989787413011633
23366157 5 18115589214729289354
23402539 116 18198895006129563580
23419403 2 15886958258398147143
23557571 272 17985562266676604396
23559900 14 18201442532328588932
2748010 2 18267028254384524551
305870 269 18335984177427975758
350125 39 18195530294453487489
43471831 8 18335695070126107970
469060 322 18119830224746211137
474 4 18186522081459805624
5939293 188 17618785751927479007
7364860 26 18196650692322679090
77492 1 17678158594222810368
81228 2 17982188999378020234
84936 182 18270961220167133912
9981440 41 18335413595191225650

> <PUBCHEM_SHAPE_MULTIPOLES>
367.53
6.36
3.81
1.08
4.16
1.67
0.06
-4.92
0.87
-0.99
-0.98
0.85
0
-1.13

> <PUBCHEM_SHAPE_SELFOVERLAP>
783.662

> <PUBCHEM_SHAPE_VOLUME>
204.1

> <PUBCHEM_COORDINATE_TYPE>
2
5
10

$$$$
