23251169
  -OEChem-08282005353D

 38 39  0     1  0  0  0  0  0999 V2000
    0.4736    0.9520   -1.3607 O   0  0  0  0  0  0  0  0  0  0  0  0
    3.2026   -0.2344    1.5103 O   0  0  0  0  0  0  0  0  0  0  0  0
   -4.1934   -1.2152    0.3674 O   0  0  0  0  0  0  0  0  0  0  0  0
    0.2619    0.1255   -0.2121 C   0  0  2  0  0  0  0  0  0  0  0  0
    1.0866    1.3849   -0.1320 C   0  0  1  0  0  0  0  0  0  0  0  0
    0.9171   -1.2353   -0.2530 C   0  0  0  0  0  0  0  0  0  0  0  0
    2.5813    1.3708   -0.1907 C   0  0  0  0  0  0  0  0  0  0  0  0
    2.4262   -1.1331   -0.6062 C   0  0  0  0  0  0  0  0  0  0  0  0
    3.1788   -0.0044    0.1065 C   0  0  2  0  0  0  0  0  0  0  0  0
    0.4813    2.6586    0.3612 C   0  0  0  0  0  0  0  0  0  0  0  0
   -1.0659    0.1745    0.4300 C   0  0  0  0  0  0  0  0  0  0  0  0
    0.7139   -1.9229    1.1127 C   0  0  0  0  0  0  0  0  0  0  0  0
    0.2213   -2.1042   -1.3200 C   0  0  0  0  0  0  0  0  0  0  0  0
   -2.2424    0.0019   -0.1926 C   0  0  0  0  0  0  0  0  0  0  0  0
   -3.5717    0.0603    0.5000 C   0  0  1  0  0  0  0  0  0  0  0  0
   -4.4714    1.1209   -0.1207 C   0  0  0  0  0  0  0  0  0  0  0  0
    2.9884    2.1004    0.5202 H   0  0  0  0  0  0  0  0  0  0  0  0
    2.8962    1.6927   -1.1916 H   0  0  0  0  0  0  0  0  0  0  0  0
    2.5350   -0.9716   -1.6875 H   0  0  0  0  0  0  0  0  0  0  0  0
    2.9144   -2.0908   -0.3843 H   0  0  0  0  0  0  0  0  0  0  0  0
    4.2235   -0.0150   -0.2258 H   0  0  0  0  0  0  0  0  0  0  0  0
   -0.5706    2.7765    0.0801 H   0  0  0  0  0  0  0  0  0  0  0  0
    0.5514    2.7114    1.4526 H   0  0  0  0  0  0  0  0  0  0  0  0
    1.0140    3.5226   -0.0520 H   0  0  0  0  0  0  0  0  0  0  0  0
   -1.0721    0.3694    1.5007 H   0  0  0  0  0  0  0  0  0  0  0  0
   -0.3276   -2.2236    1.2779 H   0  0  0  0  0  0  0  0  0  0  0  0
    1.3136   -2.8381    1.1804 H   0  0  0  0  0  0  0  0  0  0  0  0
    0.9971   -1.2769    1.9499 H   0  0  0  0  0  0  0  0  0  0  0  0
   -0.8280   -2.3031   -1.0791 H   0  0  0  0  0  0  0  0  0  0  0  0
    0.2452   -1.6229   -2.3044 H   0  0  0  0  0  0  0  0  0  0  0  0
    0.7191   -3.0765   -1.4137 H   0  0  0  0  0  0  0  0  0  0  0  0
   -2.2502   -0.1942   -1.2625 H   0  0  0  0  0  0  0  0  0  0  0  0
    3.7267    0.4758    1.9180 H   0  0  0  0  0  0  0  0  0  0  0  0
   -3.4499    0.2616    1.5703 H   0  0  0  0  0  0  0  0  0  0  0  0
   -4.6757    0.9012   -1.1751 H   0  0  0  0  0  0  0  0  0  0  0  0
   -5.4422    1.1417    0.3867 H   0  0  0  0  0  0  0  0  0  0  0  0
   -4.0232    2.1173   -0.0513 H   0  0  0  0  0  0  0  0  0  0  0  0
   -5.0524   -1.1716    0.8213 H   0  0  0  0  0  0  0  0  0  0  0  0
  1  4  1  0  0  0  0
  1  5  1  0  0  0  0
  2  9  1  0  0  0  0
  2 33  1  0  0  0  0
  3 15  1  0  0  0  0
  3 38  1  0  0  0  0
  4  5  1  0  0  0  0
  4  6  1  0  0  0  0
  4 11  1  0  0  0  0
  5  7  1  0  0  0  0
  5 10  1  0  0  0  0
  6  8  1  0  0  0  0
  6 12  1  0  0  0  0
  6 13  1  0  0  0  0
  7  9  1  0  0  0  0
  7 17  1  0  0  0  0
  7 18  1  0  0  0  0
  8  9  1  0  0  0  0
  8 19  1  0  0  0  0
  8 20  1  0  0  0  0
  9 21  1  0  0  0  0
 10 22  1  0  0  0  0
 10 23  1  0  0  0  0
 10 24  1  0  0  0  0
 11 14  2  0  0  0  0
 11 25  1  0  0  0  0
 12 26  1  0  0  0  0
 12 27  1  0  0  0  0
 12 28  1  0  0  0  0
 13 29  1  0  0  0  0
 13 30  1  0  0  0  0
 13 31  1  0  0  0  0
 14 15  1  0  0  0  0
 14 32  1  0  0  0  0
 15 16  1  0  0  0  0
 15 34  1  0  0  0  0
 16 35  1  0  0  0  0
 16 36  1  0  0  0  0
 16 37  1  0  0  0  0
M  END
> <PUBCHEM_COMPOUND_CID>
23251169

> <PUBCHEM_CONFORMER_RMSD>
0.6

> <PUBCHEM_CONFORMER_DIVERSEORDER>
1
4
7
10
8
11
5
3
2
9
6
12

> <PUBCHEM_MMFF94_PARTIAL_CHARGES>
16
1 -0.3
10 0.09
11 -0.19
14 -0.29
15 0.42
2 -0.68
25 0.15
3 -0.68
32 0.15
33 0.4
38 0.4
4 0.09
5 -0.04
6 0.09
7 0.09
9 0.28

> <PUBCHEM_EFFECTIVE_ROTOR_COUNT>
3

> <PUBCHEM_PHARMACOPHORE_FEATURES>
7
1 1 acceptor
1 2 acceptor
1 2 donor
1 3 acceptor
1 3 donor
3 6 12 13 hydrophobe
7 1 4 5 6 7 8 9 rings

> <PUBCHEM_HEAVY_ATOM_COUNT>
16

> <PUBCHEM_ATOM_DEF_STEREO_COUNT>
4

> <PUBCHEM_ATOM_UDEF_STEREO_COUNT>
0

> <PUBCHEM_BOND_DEF_STEREO_COUNT>
1

> <PUBCHEM_BOND_UDEF_STEREO_COUNT>
0

> <PUBCHEM_ISOTOPIC_ATOM_COUNT>
0

> <PUBCHEM_COMPONENT_COUNT>
1

> <PUBCHEM_CACTVS_TAUTO_COUNT>
1

> <PUBCHEM_CONFORMER_ID>
0162C8E100000001

> <PUBCHEM_MMFF94_ENERGY>
36.9067

> <PUBCHEM_FEATURE_SELFOVERLAP>
35.522

> <PUBCHEM_SHAPE_FINGERPRINT>
10219947 1 18343023272106470407
10980938 120 18412546509043329869
11132069 177 18342451543234718786
11471102 20 18411136913988959669
116883 192 17766847121901311525
12423570 1 9419820268289298764
12654215 9 18337671919144719877
13172582 1 18411409635790457998
13922767 16 18409727365772865673
14251717 144 18412261740143279327
14993402 34 18343591758610385572
15501101 241 18259705601058498125
15775835 57 18339084916024334621
16945 1 18335133172676589654
18186145 218 17917726715885287437
20511035 2 18046356497996074366
20606313 2 18411984658675564685
20645477 70 18412545388790283791
21421861 104 17461436915040938409
21501502 16 18120371227068829774
21524375 3 18122631818728120685
21730867 7 18412268324338622077
23402539 116 18130779058261333390
2748010 2 17981032030141949580
3060560 45 18130788932227714399
3286 77 18261953067587525319
4072396 5 18264190448805763825
5939293 188 18410572902899372569
7364860 26 18343309141225063079
81228 2 17832441803560232993

> <PUBCHEM_SHAPE_MULTIPOLES>
311.66
6.18
2.24
1.07
7.51
0.32
-0.04
0.39
-0.97
-0.59
0.11
-0.46
-0.33
0.1

> <PUBCHEM_SHAPE_SELFOVERLAP>
637.872

> <PUBCHEM_SHAPE_VOLUME>
182.1

> <PUBCHEM_COORDINATE_TYPE>
2
5
10

$$$$
