5320377
  -OEChem-08302006073D

 26 25  0     0  0  0  0  0  0999 V2000
   -1.3635    0.3440    0.1465 C   0  0  0  0  0  0  0  0  0  0  0  0
   -1.4672    1.7898   -0.3850 C   0  0  0  0  0  0  0  0  0  0  0  0
   -1.8981    0.3466    1.5953 C   0  0  0  0  0  0  0  0  0  0  0  0
    0.0648   -0.1975    0.2013 C   0  0  0  0  0  0  0  0  0  0  0  0
   -2.1722   -0.5358   -0.8010 C   0  0  0  0  0  0  0  0  0  0  0  0
    1.1962    0.4468   -0.1342 C   0  0  0  0  0  0  0  0  0  0  0  0
    2.5489   -0.0961   -0.0708 C   0  0  0  0  0  0  0  0  0  0  0  0
   -3.2678   -1.2531   -0.5210 C   0  0  0  0  0  0  0  0  0  0  0  0
    2.7628   -1.5059    0.4073 C   0  0  0  0  0  0  0  0  0  0  0  0
    3.5960    0.6614   -0.4384 C   0  0  0  0  0  0  0  0  0  0  0  0
   -1.0770    1.8787   -1.4063 H   0  0  0  0  0  0  0  0  0  0  0  0
   -2.5106    2.1286   -0.4070 H   0  0  0  0  0  0  0  0  0  0  0  0
   -0.9133    2.4929    0.2484 H   0  0  0  0  0  0  0  0  0  0  0  0
   -1.2852    0.9878    2.2410 H   0  0  0  0  0  0  0  0  0  0  0  0
   -1.8905   -0.6581    2.0355 H   0  0  0  0  0  0  0  0  0  0  0  0
   -2.9258    0.7257    1.6451 H   0  0  0  0  0  0  0  0  0  0  0  0
    0.1359   -1.2233    0.5625 H   0  0  0  0  0  0  0  0  0  0  0  0
   -1.8135   -0.5762   -1.8298 H   0  0  0  0  0  0  0  0  0  0  0  0
    1.1294    1.4715   -0.4918 H   0  0  0  0  0  0  0  0  0  0  0  0
   -3.7480   -1.8367   -1.2996 H   0  0  0  0  0  0  0  0  0  0  0  0
   -3.7111   -1.2820    0.4668 H   0  0  0  0  0  0  0  0  0  0  0  0
    3.8228   -1.7840    0.4040 H   0  0  0  0  0  0  0  0  0  0  0  0
    2.2403   -2.2189   -0.2396 H   0  0  0  0  0  0  0  0  0  0  0  0
    2.4007   -1.6270    1.4339 H   0  0  0  0  0  0  0  0  0  0  0  0
    4.6108    0.2779   -0.3994 H   0  0  0  0  0  0  0  0  0  0  0  0
    3.4734    1.6820   -0.7877 H   0  0  0  0  0  0  0  0  0  0  0  0
  1  2  1  0  0  0  0
  1  3  1  0  0  0  0
  1  4  1  0  0  0  0
  1  5  1  0  0  0  0
  2 11  1  0  0  0  0
  2 12  1  0  0  0  0
  2 13  1  0  0  0  0
  3 14  1  0  0  0  0
  3 15  1  0  0  0  0
  3 16  1  0  0  0  0
  4  6  2  0  0  0  0
  4 17  1  0  0  0  0
  5  8  2  0  0  0  0
  5 18  1  0  0  0  0
  6  7  1  0  0  0  0
  6 19  1  0  0  0  0
  7  9  1  0  0  0  0
  7 10  2  0  0  0  0
  8 20  1  0  0  0  0
  8 21  1  0  0  0  0
  9 22  1  0  0  0  0
  9 23  1  0  0  0  0
  9 24  1  0  0  0  0
 10 25  1  0  0  0  0
 10 26  1  0  0  0  0
M  END
> <PUBCHEM_COMPOUND_CID>
5320377

> <PUBCHEM_CONFORMER_RMSD>
0.6

> <PUBCHEM_CONFORMER_DIVERSEORDER>
1
6
5
4
3
2

> <PUBCHEM_MMFF94_PARTIAL_CHARGES>
15
1 0.28
10 -0.3
17 0.15
18 0.15
19 0.15
20 0.15
21 0.15
25 0.15
26 0.15
4 -0.29
5 -0.29
6 -0.15
7 -0.14
8 -0.3
9 0.14

> <PUBCHEM_EFFECTIVE_ROTOR_COUNT>
3

> <PUBCHEM_PHARMACOPHORE_FEATURES>
2
1 8 hydrophobe
3 1 2 3 hydrophobe

> <PUBCHEM_HEAVY_ATOM_COUNT>
10

> <PUBCHEM_ATOM_DEF_STEREO_COUNT>
0

> <PUBCHEM_ATOM_UDEF_STEREO_COUNT>
0

> <PUBCHEM_BOND_DEF_STEREO_COUNT>
1

> <PUBCHEM_BOND_UDEF_STEREO_COUNT>
0

> <PUBCHEM_ISOTOPIC_ATOM_COUNT>
0

> <PUBCHEM_COMPONENT_COUNT>
1

> <PUBCHEM_CACTVS_TAUTO_COUNT>
1

> <PUBCHEM_CONFORMER_ID>
00512EB900000001

> <PUBCHEM_MMFF94_ENERGY>
18.8329

> <PUBCHEM_FEATURE_SELFOVERLAP>
10.151

> <PUBCHEM_SHAPE_FINGERPRINT>
10857977 72 16200429191112424707
12897270 3 18336539503577095990
12932764 1 18341057332837416864
13024252 1 17240206521510804673
14325111 11 18409446960311323676
15310529 11 18411414003577038910
15775835 57 18341619191610591152
18342897 69 17775280586276006679
20201158 50 17603865632699832714
20279233 1 16081087082605812946
20281407 28 18130781304524123167
20645477 70 18188201014119861478
20653085 51 17023173869590335197
21293036 1 17313660550791815439
21524375 3 17466785979028570365
23552423 10 18189612752837510234
3248919 1 17240770566559463204
369184 2 18411139099837091433
5084963 1 18343861125836892296
8030462 33 18040440962467265670

> <PUBCHEM_SHAPE_MULTIPOLES>
205.8
5.77
1.44
1.02
2.82
0.06
0.33
-1.31
-0.74
-0.27
-0.14
-0.62
0.03
-0.6

> <PUBCHEM_SHAPE_SELFOVERLAP>
386.672

> <PUBCHEM_SHAPE_VOLUME>
130.7

> <PUBCHEM_COORDINATE_TYPE>
2
5
10

$$$$
