101774201
  -OEChem-08282006143D

 56 59  0     1  0  0  0  0  0999 V2000
    1.5966    0.1642   -0.4533 O   0  0  0  0  0  0  0  0  0  0  0  0
    4.5766   -0.4316   -0.5547 O   0  0  0  0  0  0  0  0  0  0  0  0
   -1.6993    3.5848    0.0221 O   0  0  0  0  0  0  0  0  0  0  0  0
    3.1643   -2.2035   -1.1907 O   0  0  0  0  0  0  0  0  0  0  0  0
   -0.8083   -0.4602   -0.3440 C   0  0  2  0  0  0  0  0  0  0  0  0
    0.3129    0.6325    0.0339 C   0  0  2  0  0  0  0  0  0  0  0  0
   -2.1944    0.0722    0.1817 C   0  0  2  0  0  0  0  0  0  0  0  0
   -3.3868   -0.9534    0.2012 C   0  0  0  0  0  0  0  0  0  0  0  0
   -0.0321    1.9778   -0.6949 C   0  0  1  0  0  0  0  0  0  0  0  0
   -0.5000   -1.8508    0.2814 C   0  0  0  0  0  0  0  0  0  0  0  0
    0.5191    0.8556    1.5491 C   0  0  0  0  0  0  0  0  0  0  0  0
    2.5870    0.1950    0.5909 C   0  0  1  0  0  0  0  0  0  0  0  0
   -2.5568    1.4172   -0.4720 C   0  0  0  0  0  0  0  0  0  0  0  0
    2.0127    1.0301    1.7145 C   0  0  0  0  0  0  0  0  0  0  0  0
   -2.9180   -2.2891    0.8249 C   0  0  0  0  0  0  0  0  0  0  0  0
   -1.6525   -2.8495    0.1954 C   0  0  0  0  0  0  0  0  0  0  0  0
   -0.7828   -0.6812   -1.8892 C   0  0  0  0  0  0  0  0  0  0  0  0
   -1.4429    2.4287   -0.3174 C   0  0  0  0  0  0  0  0  0  0  0  0
    2.9790   -1.2187    0.9944 C   0  0  0  0  0  0  0  0  0  0  0  0
   -4.0255   -1.2085   -1.1781 C   0  0  0  0  0  0  0  0  0  0  0  0
   -4.5237   -0.4151    1.1108 C   0  0  0  0  0  0  0  0  0  0  0  0
    3.9027    0.7023    0.0204 C   0  0  0  0  0  0  0  0  0  0  0  0
    0.9553    3.1311   -0.4975 C   0  0  0  0  0  0  0  0  0  0  0  0
    3.9171   -1.6300   -0.1287 C   0  0  2  0  0  0  0  0  0  0  0  0
   -2.0236    0.3009    1.2449 H   0  0  0  0  0  0  0  0  0  0  0  0
   -0.0327    1.8088   -1.7779 H   0  0  0  0  0  0  0  0  0  0  0  0
   -0.2453   -1.7604    1.3399 H   0  0  0  0  0  0  0  0  0  0  0  0
    0.3730   -2.2961   -0.2097 H   0  0  0  0  0  0  0  0  0  0  0  0
    0.2107   -0.0045    2.1465 H   0  0  0  0  0  0  0  0  0  0  0  0
   -0.0394    1.7091    1.9464 H   0  0  0  0  0  0  0  0  0  0  0  0
   -3.4435    1.8463    0.0058 H   0  0  0  0  0  0  0  0  0  0  0  0
   -2.7790    1.3227   -1.5383 H   0  0  0  0  0  0  0  0  0  0  0  0
    2.2894    2.0824    1.6009 H   0  0  0  0  0  0  0  0  0  0  0  0
    2.3582    0.7232    2.7070 H   0  0  0  0  0  0  0  0  0  0  0  0
   -3.7143   -3.0413    0.7559 H   0  0  0  0  0  0  0  0  0  0  0  0
   -2.7303   -2.1443    1.8978 H   0  0  0  0  0  0  0  0  0  0  0  0
   -1.8393   -3.1527   -0.8390 H   0  0  0  0  0  0  0  0  0  0  0  0
   -1.3659   -3.7653    0.7271 H   0  0  0  0  0  0  0  0  0  0  0  0
   -1.2060    0.1514   -2.4545 H   0  0  0  0  0  0  0  0  0  0  0  0
   -1.3249   -1.5740   -2.2016 H   0  0  0  0  0  0  0  0  0  0  0  0
    0.2421   -0.8271   -2.2493 H   0  0  0  0  0  0  0  0  0  0  0  0
    2.1384   -1.9040    1.1043 H   0  0  0  0  0  0  0  0  0  0  0  0
    3.5394   -1.1934    1.9372 H   0  0  0  0  0  0  0  0  0  0  0  0
   -5.3059   -1.1708    1.2510 H   0  0  0  0  0  0  0  0  0  0  0  0
   -4.1469   -0.1464    2.1040 H   0  0  0  0  0  0  0  0  0  0  0  0
   -5.0074    0.4690    0.6835 H   0  0  0  0  0  0  0  0  0  0  0  0
   -4.8813   -1.8889   -1.0865 H   0  0  0  0  0  0  0  0  0  0  0  0
   -4.4052   -0.2851   -1.6268 H   0  0  0  0  0  0  0  0  0  0  0  0
   -3.3435   -1.6702   -1.8901 H   0  0  0  0  0  0  0  0  0  0  0  0
    3.7776    1.4523   -0.7645 H   0  0  0  0  0  0  0  0  0  0  0  0
    4.5586    1.1046    0.8000 H   0  0  0  0  0  0  0  0  0  0  0  0
    0.9510    3.5076    0.5298 H   0  0  0  0  0  0  0  0  0  0  0  0
    0.6809    3.9770   -1.1393 H   0  0  0  0  0  0  0  0  0  0  0  0
    1.9719    2.8429   -0.7711 H   0  0  0  0  0  0  0  0  0  0  0  0
    4.6572   -2.3608    0.2126 H   0  0  0  0  0  0  0  0  0  0  0  0
    3.7770   -2.7481   -1.7133 H   0  0  0  0  0  0  0  0  0  0  0  0
  1  6  1  0  0  0  0
  1 12  1  0  0  0  0
  2 22  1  0  0  0  0
  2 24  1  0  0  0  0
  3 18  2  0  0  0  0
  4 24  1  0  0  0  0
  4 56  1  0  0  0  0
  5  6  1  0  0  0  0
  5  7  1  0  0  0  0
  5 10  1  0  0  0  0
  5 17  1  0  0  0  0
  6  9  1  0  0  0  0
  6 11  1  0  0  0  0
  7  8  1  0  0  0  0
  7 13  1  0  0  0  0
  7 25  1  0  0  0  0
  8 15  1  0  0  0  0
  8 20  1  0  0  0  0
  8 21  1  0  0  0  0
  9 18  1  0  0  0  0
  9 23  1  0  0  0  0
  9 26  1  0  0  0  0
 10 16  1  0  0  0  0
 10 27  1  0  0  0  0
 10 28  1  0  0  0  0
 11 14  1  0  0  0  0
 11 29  1  0  0  0  0
 11 30  1  0  0  0  0
 12 14  1  0  0  0  0
 12 19  1  0  0  0  0
 12 22  1  0  0  0  0
 13 18  1  0  0  0  0
 13 31  1  0  0  0  0
 13 32  1  0  0  0  0
 14 33  1  0  0  0  0
 14 34  1  0  0  0  0
 15 16  1  0  0  0  0
 15 35  1  0  0  0  0
 15 36  1  0  0  0  0
 16 37  1  0  0  0  0
 16 38  1  0  0  0  0
 17 39  1  0  0  0  0
 17 40  1  0  0  0  0
 17 41  1  0  0  0  0
 19 24  1  0  0  0  0
 19 42  1  0  0  0  0
 19 43  1  0  0  0  0
 20 47  1  0  0  0  0
 20 48  1  0  0  0  0
 20 49  1  0  0  0  0
 21 44  1  0  0  0  0
 21 45  1  0  0  0  0
 21 46  1  0  0  0  0
 22 50  1  0  0  0  0
 22 51  1  0  0  0  0
 23 52  1  0  0  0  0
 23 53  1  0  0  0  0
 23 54  1  0  0  0  0
 24 55  1  0  0  0  0
M  END
> <PUBCHEM_COMPOUND_CID>
101774201

> <PUBCHEM_CONFORMER_RMSD>
0.6

> <PUBCHEM_CONFORMER_DIVERSEORDER>
1
2

> <PUBCHEM_MMFF94_PARTIAL_CHARGES>
12
1 -0.56
12 0.28
13 0.06
18 0.45
2 -0.56
22 0.28
24 0.56
3 -0.57
4 -0.68
56 0.4
6 0.28
9 0.06

> <PUBCHEM_EFFECTIVE_ROTOR_COUNT>
2.6

> <PUBCHEM_PHARMACOPHORE_FEATURES>
10
1 1 acceptor
1 2 acceptor
1 3 acceptor
1 4 acceptor
1 4 donor
3 8 20 21 hydrophobe
5 1 6 11 12 14 rings
5 2 12 19 22 24 rings
6 5 6 7 9 13 18 rings
6 5 7 8 10 15 16 rings

> <PUBCHEM_HEAVY_ATOM_COUNT>
24

> <PUBCHEM_ATOM_DEF_STEREO_COUNT>
6

> <PUBCHEM_ATOM_UDEF_STEREO_COUNT>
0

> <PUBCHEM_BOND_DEF_STEREO_COUNT>
0

> <PUBCHEM_BOND_UDEF_STEREO_COUNT>
0

> <PUBCHEM_ISOTOPIC_ATOM_COUNT>
0

> <PUBCHEM_COMPONENT_COUNT>
1

> <PUBCHEM_CACTVS_TAUTO_COUNT>
3

> <PUBCHEM_CONFORMER_ID>
0610F37900000001

> <PUBCHEM_MMFF94_ENERGY>
94.1255

> <PUBCHEM_FEATURE_SELFOVERLAP>
50.829

> <PUBCHEM_SHAPE_FINGERPRINT>
10366900 7 18271801371472963258
104564 63 18338231553372722235
10863032 1 18191584160069378048
10967382 1 18192429894764114185
11578080 2 16807259575714889532
116883 192 18410856559718982436
12011746 2 18408599254253238863
12173636 292 18263355885384488964
12553582 1 18335133232526700027
12592029 89 17545042598064192840
12633257 1 17632308860607770275
12714826 92 18273216365897200100
12788726 201 18334576819640064960
12892183 10 17774441714891498211
13140716 1 18120090842892291969
13583140 156 14620793790871272303
14022347 108 18187075174516017579
14223421 5 18340199786697786752
14251751 93 18192430766547412984
14790565 3 18335994068944166325
15209289 33 18343023276813122003
15664445 248 18197241310988587644
16752209 62 18042666374080979487
16945 1 18336539516683686785
17349148 13 17916023645879326359
17357779 13 18339344336597077725
17804303 29 18341897398138282211
1813 80 18408893935710903420
19049666 15 18271799060922729594
19591789 44 17833551193675794361
19784866 135 18335696101086837082
200 152 13984654858863328466
20510252 161 18412261696898408793
20600515 1 18270134516076567975
20871999 31 18261110755612653828
20905425 154 18124594172011147311
21330990 113 18264216807294495667
22802520 49 18341883066059411656
22907989 373 18041832913875723181
2334 1 18264198128434018713
23402539 116 18341889697747327623
23419403 2 17631710708707063800
23557571 272 18412830158070246276
23559900 14 18338793537101121424
2748010 2 18338218380592078157
3286 77 17203320182715600283
5104073 3 18268140977690367488
5845 1 17835761495283669188
598444 67 18341048510716212403
7097593 13 17977109277538914707
7364860 26 17832145291786708033
81228 2 18336813243360274921
9709674 26 18341051822531857638

> <PUBCHEM_SHAPE_MULTIPOLES>
470.43
7.24
3.27
1.31
1.56
1.66
0.03
-3.7
0.22
-0.69
-0.31
-0.02
-0.14
0.54

> <PUBCHEM_SHAPE_SELFOVERLAP>
999.876

> <PUBCHEM_SHAPE_VOLUME>
260.9

> <PUBCHEM_COORDINATE_TYPE>
2
5
10

$$$$
