101891061
  -OEChem-08282006443D

 55 57  0     1  0  0  0  0  0999 V2000
   -3.1820   -3.4214    0.3080 O   0  0  0  0  0  0  0  0  0  0  0  0
    5.0883   -0.5313   -0.1643 O   0  0  0  0  0  0  0  0  0  0  0  0
    5.7023    1.6463    0.5147 O   0  0  0  0  0  0  0  0  0  0  0  0
    3.6753   -2.2486    0.4202 O   0  0  0  0  0  0  0  0  0  0  0  0
   -2.9796    0.2075    0.3236 C   0  0  1  0  0  0  0  0  0  0  0  0
   -1.7585    0.3763   -0.6468 C   0  0  1  0  0  0  0  0  0  0  0  0
   -3.9447    1.4376    0.4845 C   0  0  0  0  0  0  0  0  0  0  0  0
   -1.0452    1.7086   -0.2865 C   0  0  0  0  0  0  0  0  0  0  0  0
   -3.1127    2.7174    0.7376 C   0  0  0  0  0  0  0  0  0  0  0  0
   -1.9775    2.9166   -0.2557 C   0  0  0  0  0  0  0  0  0  0  0  0
   -3.6961   -1.1155    0.0450 C   0  0  0  0  0  0  0  0  0  0  0  0
   -0.8171   -0.8449   -0.4497 C   0  0  0  0  0  0  0  0  0  0  0  0
   -2.1241    0.3842   -2.1495 C   0  0  0  0  0  0  0  0  0  0  0  0
   -4.8435    1.2355    1.7339 C   0  0  0  0  0  0  0  0  0  0  0  0
   -4.9031    1.6583   -0.7016 C   0  0  0  0  0  0  0  0  0  0  0  0
   -1.2710   -2.0594   -0.0596 C   0  0  0  0  0  0  0  0  0  0  0  0
   -2.7433   -2.2841    0.1273 C   0  0  0  0  0  0  0  0  0  0  0  0
    0.6466   -0.6189   -0.7696 C   0  0  0  0  0  0  0  0  0  0  0  0
   -0.4161   -3.2693    0.2058 C   0  0  0  0  0  0  0  0  0  0  0  0
    1.4247   -0.2412    0.4795 C   0  0  0  0  0  0  0  0  0  0  0  0
    2.8650   -0.0123    0.1636 C   0  0  0  0  0  0  0  0  0  0  0  0
    3.4988    1.1122   -0.1591 C   0  0  0  0  0  0  0  0  0  0  0  0
    3.8791   -1.0740    0.1657 C   0  0  0  0  0  0  0  0  0  0  0  0
    4.9361    0.8728   -0.3931 C   0  0  2  0  0  0  0  0  0  0  0  0
    7.0982    1.4476    0.3263 C   0  0  0  0  0  0  0  0  0  0  0  0
   -2.5267    0.0910    1.3244 H   0  0  0  0  0  0  0  0  0  0  0  0
   -0.2259    1.9357   -0.9769 H   0  0  0  0  0  0  0  0  0  0  0  0
   -0.6263    1.6386    0.7214 H   0  0  0  0  0  0  0  0  0  0  0  0
   -2.6784    2.6761    1.7461 H   0  0  0  0  0  0  0  0  0  0  0  0
   -3.7612    3.6028    0.7241 H   0  0  0  0  0  0  0  0  0  0  0  0
   -1.4017    3.8032    0.0372 H   0  0  0  0  0  0  0  0  0  0  0  0
   -2.3722    3.1279   -1.2545 H   0  0  0  0  0  0  0  0  0  0  0  0
   -4.1758   -1.1336   -0.9377 H   0  0  0  0  0  0  0  0  0  0  0  0
   -4.4685   -1.2938    0.7998 H   0  0  0  0  0  0  0  0  0  0  0  0
   -2.7216    1.2461   -2.4416 H   0  0  0  0  0  0  0  0  0  0  0  0
   -2.6681   -0.5161   -2.4525 H   0  0  0  0  0  0  0  0  0  0  0  0
   -1.2223    0.4263   -2.7731 H   0  0  0  0  0  0  0  0  0  0  0  0
   -5.5686    0.4281    1.5904 H   0  0  0  0  0  0  0  0  0  0  0  0
   -5.4162    2.1437    1.9572 H   0  0  0  0  0  0  0  0  0  0  0  0
   -4.2462    0.9994    2.6217 H   0  0  0  0  0  0  0  0  0  0  0  0
   -5.4801    0.7574   -0.9322 H   0  0  0  0  0  0  0  0  0  0  0  0
   -4.3960    1.9787   -1.6103 H   0  0  0  0  0  0  0  0  0  0  0  0
   -5.6290    2.4474   -0.4683 H   0  0  0  0  0  0  0  0  0  0  0  0
    0.7652    0.1363   -1.5547 H   0  0  0  0  0  0  0  0  0  0  0  0
    1.0763   -1.5213   -1.2241 H   0  0  0  0  0  0  0  0  0  0  0  0
   -0.6578   -3.6939    1.1866 H   0  0  0  0  0  0  0  0  0  0  0  0
   -0.6006   -4.0344   -0.5556 H   0  0  0  0  0  0  0  0  0  0  0  0
    0.6561   -3.0646    0.2159 H   0  0  0  0  0  0  0  0  0  0  0  0
    1.0475    0.6592    0.9638 H   0  0  0  0  0  0  0  0  0  0  0  0
    1.3466   -1.0276    1.2404 H   0  0  0  0  0  0  0  0  0  0  0  0
    3.0230    2.0787   -0.2466 H   0  0  0  0  0  0  0  0  0  0  0  0
    5.2070    1.1072   -1.4292 H   0  0  0  0  0  0  0  0  0  0  0  0
    7.6327    2.1040    1.0184 H   0  0  0  0  0  0  0  0  0  0  0  0
    7.3907    1.7086   -0.6955 H   0  0  0  0  0  0  0  0  0  0  0  0
    7.3776    0.4133    0.5477 H   0  0  0  0  0  0  0  0  0  0  0  0
  1 17  2  0  0  0  0
  2 23  1  0  0  0  0
  2 24  1  0  0  0  0
  3 24  1  0  0  0  0
  3 25  1  0  0  0  0
  4 23  2  0  0  0  0
  5  6  1  0  0  0  0
  5  7  1  0  0  0  0
  5 11  1  0  0  0  0
  5 26  1  0  0  0  0
  6  8  1  0  0  0  0
  6 12  1  0  0  0  0
  6 13  1  0  0  0  0
  7  9  1  0  0  0  0
  7 14  1  0  0  0  0
  7 15  1  0  0  0  0
  8 10  1  0  0  0  0
  8 27  1  0  0  0  0
  8 28  1  0  0  0  0
  9 10  1  0  0  0  0
  9 29  1  0  0  0  0
  9 30  1  0  0  0  0
 10 31  1  0  0  0  0
 10 32  1  0  0  0  0
 11 17  1  0  0  0  0
 11 33  1  0  0  0  0
 11 34  1  0  0  0  0
 12 16  2  0  0  0  0
 12 18  1  0  0  0  0
 13 35  1  0  0  0  0
 13 36  1  0  0  0  0
 13 37  1  0  0  0  0
 14 38  1  0  0  0  0
 14 39  1  0  0  0  0
 14 40  1  0  0  0  0
 15 41  1  0  0  0  0
 15 42  1  0  0  0  0
 15 43  1  0  0  0  0
 16 17  1  0  0  0  0
 16 19  1  0  0  0  0
 18 20  1  0  0  0  0
 18 44  1  0  0  0  0
 18 45  1  0  0  0  0
 19 46  1  0  0  0  0
 19 47  1  0  0  0  0
 19 48  1  0  0  0  0
 20 21  1  0  0  0  0
 20 49  1  0  0  0  0
 20 50  1  0  0  0  0
 21 22  2  0  0  0  0
 21 23  1  0  0  0  0
 22 24  1  0  0  0  0
 22 51  1  0  0  0  0
 24 52  1  0  0  0  0
 25 53  1  0  0  0  0
 25 54  1  0  0  0  0
 25 55  1  0  0  0  0
M  END
> <PUBCHEM_COMPOUND_CID>
101891061

> <PUBCHEM_CONFORMER_RMSD>
0.8

> <PUBCHEM_CONFORMER_DIVERSEORDER>
1
17
16
15
4
18
14
7
9
13
11
10
5
3
8
2
12
6

> <PUBCHEM_MMFF94_PARTIAL_CHARGES>
18
1 -0.57
11 0.06
12 -0.28
16 -0.12
17 0.49
18 0.14
19 0.14
2 -0.43
20 0.14
21 -0.12
22 -0.29
23 0.71
24 0.7
25 0.28
3 -0.56
4 -0.57
51 0.15
6 0.14

> <PUBCHEM_EFFECTIVE_ROTOR_COUNT>
5.4

> <PUBCHEM_PHARMACOPHORE_FEATURES>
7
1 1 acceptor
1 3 acceptor
1 4 acceptor
3 7 14 15 hydrophobe
5 2 21 22 23 24 rings
6 5 6 11 12 16 17 rings
6 5 6 7 8 9 10 rings

> <PUBCHEM_HEAVY_ATOM_COUNT>
25

> <PUBCHEM_ATOM_DEF_STEREO_COUNT>
2

> <PUBCHEM_ATOM_UDEF_STEREO_COUNT>
1

> <PUBCHEM_BOND_DEF_STEREO_COUNT>
0

> <PUBCHEM_BOND_UDEF_STEREO_COUNT>
0

> <PUBCHEM_ISOTOPIC_ATOM_COUNT>
0

> <PUBCHEM_COMPONENT_COUNT>
1

> <PUBCHEM_CACTVS_TAUTO_COUNT>
5

> <PUBCHEM_CONFORMER_ID>
0612BBF500000001

> <PUBCHEM_MMFF94_ENERGY>
64.2296

> <PUBCHEM_FEATURE_SELFOVERLAP>
35.539

> <PUBCHEM_SHAPE_FINGERPRINT>
10 15 18186521016799007568
10319926 262 18341317956370417738
10366900 7 17917703587523562273
10411042 1 17906735061663339775
10493431 412 18340496573644507257
10616163 171 18411140264032061830
1100329 8 18338804511217394425
11315181 36 18115303514031825316
11405975 8 18336824204792119042
11552529 35 18340484581531697487
11578080 2 15050636815938075905
12107183 9 18048592625901826266
12173636 292 18410853235377307324
12390115 104 18342471343192221882
12633257 1 18263916657974354114
12788726 201 18189886702894999035
13140716 1 18339091492326211513
14341114 176 18337115579351773244
14787075 74 18130220463742652433
14790565 3 18195812860283956345
14844126 61 18263647445134854195
15163728 17 15768672853991833001
15196674 1 18410573981241839574
19377110 9 18040426720725036248
21033648 144 18336535054497581492
21033648 29 18189882150213853605
21202864 24 18411146827026556499
21236236 1 18341612646402399839
21756936 100 18272364296072980988
22224240 67 18341623573326813025
23198884 109 15985105201868756576
23227448 37 18412546513470536389
23557571 272 18269563887191113422
23559900 14 18341607140312491688
283562 15 18335696208735962243
4073 2 18261396685288368514
4214541 1 18410011048578816918
445580 37 18337965592572460340
469060 322 16732978769012422039
5104073 3 18408598176432810450
633830 44 18200028426540271302
7808743 9 18411418406019049560

> <PUBCHEM_SHAPE_MULTIPOLES>
491.01
12.71
3.42
1.08
21.19
1.68
0.22
-6.83
-2.45
-2.65
-0.5
-1.1
-0.3
-0.15

> <PUBCHEM_SHAPE_SELFOVERLAP>
1030.528

> <PUBCHEM_SHAPE_VOLUME>
275

> <PUBCHEM_COORDINATE_TYPE>
2
5
10

$$$$
