15958448
  -OEChem-08282008243D

 77 81  0     1  0  0  0  0  0999 V2000
   -4.5763    2.6563    1.2986 O   0  0  0  0  0  0  0  0  0  0  0  0
   -3.2318    1.0287    2.1582 O   0  0  0  0  0  0  0  0  0  0  0  0
    3.0639   -3.3130    1.1086 O   0  0  0  0  0  0  0  0  0  0  0  0
   -0.6501    0.9717   -0.6111 C   0  0  1  0  0  0  0  0  0  0  0  0
    0.7975    1.0868    0.1202 C   0  0  1  0  0  0  0  0  0  0  0  0
   -1.4815   -0.1633    0.1136 C   0  0  1  0  0  0  0  0  0  0  0  0
    1.5317   -0.3326    0.0029 C   0  0  1  0  0  0  0  0  0  0  0  0
   -2.9261   -0.2276   -0.4307 C   0  0  2  0  0  0  0  0  0  0  0  0
    3.0472   -0.3138    0.4351 C   0  0  2  0  0  0  0  0  0  0  0  0
   -3.6468    1.1185   -0.2389 C   0  0  1  0  0  0  0  0  0  0  0  0
    3.6908    0.7943   -0.4642 C   0  0  1  0  0  0  0  0  0  0  0  0
   -1.4496    2.3235   -0.5770 C   0  0  0  0  0  0  0  0  0  0  0  0
    1.6677    2.2287   -0.5133 C   0  0  0  0  0  0  0  0  0  0  0  0
   -0.7548   -1.5138    0.0708 C   0  0  0  0  0  0  0  0  0  0  0  0
    0.6761   -1.4574    0.6178 C   0  0  0  0  0  0  0  0  0  0  0  0
   -2.9259    2.2187   -1.0161 C   0  0  0  0  0  0  0  0  0  0  0  0
    3.1679    2.1896   -0.1673 C   0  0  0  0  0  0  0  0  0  0  0  0
   -3.9266   -1.2468    0.1484 C   0  0  1  0  0  0  0  0  0  0  0  0
    5.2076    0.5214   -0.5389 C   0  0  0  0  0  0  0  0  0  0  0  0
   -0.4846    0.6315   -2.1322 C   0  0  0  0  0  0  0  0  0  0  0  0
    0.6077    1.4911    1.6167 C   0  0  0  0  0  0  0  0  0  0  0  0
   -5.0546    0.7800   -0.7252 C   0  0  0  0  0  0  0  0  0  0  0  0
   -5.3100   -0.6394   -0.1862 C   0  0  0  0  0  0  0  0  0  0  0  0
    3.9777   -1.4360    0.0045 C   0  0  0  0  0  0  0  0  0  0  0  0
    3.2623   -0.1574    1.9586 C   0  0  0  0  0  0  0  0  0  0  0  0
    5.1554   -0.9888   -0.4667 C   0  0  0  0  0  0  0  0  0  0  0  0
   -3.7735    1.5683    1.2048 C   0  0  0  0  0  0  0  0  0  0  0  0
   -3.7980   -2.6298   -0.4044 C   0  0  0  0  0  0  0  0  0  0  0  0
    5.9022    1.0279   -1.8051 C   0  0  0  0  0  0  0  0  0  0  0  0
    5.9333    1.0966    0.6876 C   0  0  0  0  0  0  0  0  0  0  0  0
    3.8075   -2.8603    0.2383 C   0  0  0  0  0  0  0  0  0  0  0  0
   -3.9278   -2.7620   -1.8928 C   0  0  0  0  0  0  0  0  0  0  0  0
   -3.5785   -3.6914    0.3855 C   0  0  0  0  0  0  0  0  0  0  0  0
   -1.5305    0.0795    1.1730 H   0  0  0  0  0  0  0  0  0  0  0  0
    1.5737   -0.5790   -1.0651 H   0  0  0  0  0  0  0  0  0  0  0  0
   -2.8615   -0.4115   -1.5085 H   0  0  0  0  0  0  0  0  0  0  0  0
    3.3502    0.6016   -1.5003 H   0  0  0  0  0  0  0  0  0  0  0  0
   -0.9547    3.0676   -1.2135 H   0  0  0  0  0  0  0  0  0  0  0  0
   -1.4518    2.7496    0.4283 H   0  0  0  0  0  0  0  0  0  0  0  0
    1.2699    3.2112   -0.2303 H   0  0  0  0  0  0  0  0  0  0  0  0
    1.6064    2.1883   -1.6042 H   0  0  0  0  0  0  0  0  0  0  0  0
   -0.7432   -1.9133   -0.9495 H   0  0  0  0  0  0  0  0  0  0  0  0
   -1.2911   -2.2422    0.6848 H   0  0  0  0  0  0  0  0  0  0  0  0
    0.6364   -1.3841    1.7080 H   0  0  0  0  0  0  0  0  0  0  0  0
    1.1119   -2.4281    0.3835 H   0  0  0  0  0  0  0  0  0  0  0  0
   -3.4068    3.1941   -0.8727 H   0  0  0  0  0  0  0  0  0  0  0  0
   -2.9795    2.0218   -2.0930 H   0  0  0  0  0  0  0  0  0  0  0  0
    3.6882    2.9271   -0.7899 H   0  0  0  0  0  0  0  0  0  0  0  0
    3.3365    2.4904    0.8694 H   0  0  0  0  0  0  0  0  0  0  0  0
   -3.8205   -1.2786    1.2407 H   0  0  0  0  0  0  0  0  0  0  0  0
   -1.4422    0.5553   -2.6532 H   0  0  0  0  0  0  0  0  0  0  0  0
    0.0669    1.4091   -2.6671 H   0  0  0  0  0  0  0  0  0  0  0  0
    0.0242   -0.3159   -2.3160 H   0  0  0  0  0  0  0  0  0  0  0  0
    1.5476    1.7699    2.0923 H   0  0  0  0  0  0  0  0  0  0  0  0
   -0.0186    2.3776    1.7341 H   0  0  0  0  0  0  0  0  0  0  0  0
    0.1683    0.7014    2.2288 H   0  0  0  0  0  0  0  0  0  0  0  0
   -5.0794    0.7506   -1.8223 H   0  0  0  0  0  0  0  0  0  0  0  0
   -5.8416    1.4705   -0.4066 H   0  0  0  0  0  0  0  0  0  0  0  0
   -5.8898   -0.5686    0.7439 H   0  0  0  0  0  0  0  0  0  0  0  0
   -5.9332   -1.2135   -0.8769 H   0  0  0  0  0  0  0  0  0  0  0  0
    3.4119    0.8778    2.2689 H   0  0  0  0  0  0  0  0  0  0  0  0
    2.4194   -0.5514    2.5325 H   0  0  0  0  0  0  0  0  0  0  0  0
    4.1306   -0.7153    2.3314 H   0  0  0  0  0  0  0  0  0  0  0  0
    5.9936   -1.6188   -0.7347 H   0  0  0  0  0  0  0  0  0  0  0  0
    6.9552    0.7250   -1.8318 H   0  0  0  0  0  0  0  0  0  0  0  0
    5.8631    2.1208   -1.8648 H   0  0  0  0  0  0  0  0  0  0  0  0
    5.4249    0.6293   -2.7076 H   0  0  0  0  0  0  0  0  0  0  0  0
    7.0114    0.9039    0.6126 H   0  0  0  0  0  0  0  0  0  0  0  0
    5.6277    0.6710    1.6424 H   0  0  0  0  0  0  0  0  0  0  0  0
    5.8100    2.1835    0.7477 H   0  0  0  0  0  0  0  0  0  0  0  0
    4.4473   -3.5292   -0.3615 H   0  0  0  0  0  0  0  0  0  0  0  0
   -4.8126   -2.2651   -2.2957 H   0  0  0  0  0  0  0  0  0  0  0  0
   -3.0441   -2.3640   -2.4009 H   0  0  0  0  0  0  0  0  0  0  0  0
   -4.0065   -3.8153   -2.1875 H   0  0  0  0  0  0  0  0  0  0  0  0
   -4.6716    2.9621    2.2257 H   0  0  0  0  0  0  0  0  0  0  0  0
   -3.4843   -4.6906   -0.0264 H   0  0  0  0  0  0  0  0  0  0  0  0
   -3.4866   -3.5879    1.4615 H   0  0  0  0  0  0  0  0  0  0  0  0
  1 27  1  0  0  0  0
  1 75  1  0  0  0  0
  2 27  2  0  0  0  0
  3 31  2  0  0  0  0
  4  5  1  0  0  0  0
  4  6  1  0  0  0  0
  4 12  1  0  0  0  0
  4 20  1  0  0  0  0
  5  7  1  0  0  0  0
  5 13  1  0  0  0  0
  5 21  1  0  0  0  0
  6  8  1  0  0  0  0
  6 14  1  0  0  0  0
  6 34  1  0  0  0  0
  7  9  1  0  0  0  0
  7 15  1  0  0  0  0
  7 35  1  0  0  0  0
  8 10  1  0  0  0  0
  8 18  1  0  0  0  0
  8 36  1  0  0  0  0
  9 11  1  0  0  0  0
  9 24  1  0  0  0  0
  9 25  1  0  0  0  0
 10 16  1  0  0  0  0
 10 22  1  0  0  0  0
 10 27  1  0  0  0  0
 11 17  1  0  0  0  0
 11 19  1  0  0  0  0
 11 37  1  0  0  0  0
 12 16  1  0  0  0  0
 12 38  1  0  0  0  0
 12 39  1  0  0  0  0
 13 17  1  0  0  0  0
 13 40  1  0  0  0  0
 13 41  1  0  0  0  0
 14 15  1  0  0  0  0
 14 42  1  0  0  0  0
 14 43  1  0  0  0  0
 15 44  1  0  0  0  0
 15 45  1  0  0  0  0
 16 46  1  0  0  0  0
 16 47  1  0  0  0  0
 17 48  1  0  0  0  0
 17 49  1  0  0  0  0
 18 23  1  0  0  0  0
 18 28  1  0  0  0  0
 18 50  1  0  0  0  0
 19 26  1  0  0  0  0
 19 29  1  0  0  0  0
 19 30  1  0  0  0  0
 20 51  1  0  0  0  0
 20 52  1  0  0  0  0
 20 53  1  0  0  0  0
 21 54  1  0  0  0  0
 21 55  1  0  0  0  0
 21 56  1  0  0  0  0
 22 23  1  0  0  0  0
 22 57  1  0  0  0  0
 22 58  1  0  0  0  0
 23 59  1  0  0  0  0
 23 60  1  0  0  0  0
 24 26  2  0  0  0  0
 24 31  1  0  0  0  0
 25 61  1  0  0  0  0
 25 62  1  0  0  0  0
 25 63  1  0  0  0  0
 26 64  1  0  0  0  0
 28 32  1  0  0  0  0
 28 33  2  0  0  0  0
 29 65  1  0  0  0  0
 29 66  1  0  0  0  0
 29 67  1  0  0  0  0
 30 68  1  0  0  0  0
 30 69  1  0  0  0  0
 30 70  1  0  0  0  0
 31 71  1  0  0  0  0
 32 72  1  0  0  0  0
 32 73  1  0  0  0  0
 32 74  1  0  0  0  0
 33 76  1  0  0  0  0
 33 77  1  0  0  0  0
M  END
> <PUBCHEM_COMPOUND_CID>
15958448

> <PUBCHEM_CONFORMER_RMSD>
0.8

> <PUBCHEM_CONFORMER_DIVERSEORDER>
1
2
20
17
19
12
9
26
11
7
18
24
8
16
6
21
4
10
27
5
15
22
25
14
3
23
13

> <PUBCHEM_MMFF94_PARTIAL_CHARGES>
19
1 -0.65
10 0.06
18 0.14
19 0.14
2 -0.57
24 -0.12
26 -0.29
27 0.66
28 -0.28
3 -0.57
31 0.5
32 0.14
33 -0.3
64 0.15
71 0.06
75 0.5
76 0.15
77 0.15
9 0.14

> <PUBCHEM_EFFECTIVE_ROTOR_COUNT>
5

> <PUBCHEM_PHARMACOPHORE_FEATURES>
10
1 1 acceptor
1 2 acceptor
1 3 acceptor
3 1 2 27 anion
3 19 29 30 hydrophobe
5 8 10 18 22 23 rings
5 9 11 19 24 26 rings
6 4 5 6 7 14 15 rings
6 4 6 8 10 12 16 rings
6 5 7 9 11 13 17 rings

> <PUBCHEM_HEAVY_ATOM_COUNT>
33

> <PUBCHEM_ATOM_DEF_STEREO_COUNT>
6

> <PUBCHEM_ATOM_UDEF_STEREO_COUNT>
3

> <PUBCHEM_BOND_DEF_STEREO_COUNT>
0

> <PUBCHEM_BOND_UDEF_STEREO_COUNT>
0

> <PUBCHEM_ISOTOPIC_ATOM_COUNT>
0

> <PUBCHEM_COMPONENT_COUNT>
1

> <PUBCHEM_CACTVS_TAUTO_COUNT>
1

> <PUBCHEM_CONFORMER_ID>
00F381B000000001

> <PUBCHEM_MMFF94_ENERGY>
158.185

> <PUBCHEM_FEATURE_SELFOVERLAP>
50.945

> <PUBCHEM_SHAPE_FINGERPRINT>
10369192 42 17412722271358935240
10622 236 18269249353620166927
11135609 12 17750529536501268611
11513181 2 18273215300535406502
11552529 35 18272647987105259711
11578080 2 16951954060415757295
12107183 9 17980201881197754577
12236239 1 18060138704599734968
12596602 18 17917993880231701136
12633257 1 18269275651724960003
12788726 201 17773325543402482048
13224815 77 18187359926289011065
13583140 156 17489579108284695273
13631057 29 18267865158516178467
13782708 43 17275111652058817798
13911987 19 14418149395546274222
14068700 675 18198332065267516231
14341114 176 18413110563056625231
14347332 77 18270397316978892655
14790565 3 18334863809550196132
14840074 17 17968102997380645629
14856354 85 18343311369970413229
15082195 135 17969790872621223268
15183329 4 18335425651797265300
15250474 111 18409720738512175594
15361156 5 18041575675673464596
15484559 13 15514150020654328117
15788980 27 17894913996797275268
15799311 1 18336840714208243038
1601671 61 18408886222582811192
17349148 13 17749667505793074375
17492 89 18337107998698111683
17844677 252 18059578039547556416
17857418 61 18408879663645296558
1813 80 17313388898373552391
20511986 3 18338786853794086913
20691752 17 17313376859638327848
20775438 99 16184349117674104639
20775530 9 18121490521844096147
21033648 29 15051727547613572995
21236236 1 18411701010492998511
21267235 1 18336270149852922727
21703447 108 17770762809336002281
22393880 68 18408880767357134444
23522609 53 18118432638062541916
23559900 14 18338789126111868077
24771293 8 18337955705711446596
350125 39 18411983568349860121
3633792 109 18265040359469767501
4073 2 18337111267151522946
460360 51 18338817648947398447
497634 4 18411983568191851693
5104073 3 18412258424607979458

> <PUBCHEM_SHAPE_MULTIPOLES>
661.52
12.91
3.47
1.53
5.64
2.25
-0.06
1.14
1.35
-2.18
-0.15
-0.11
-0.31
-1.55

> <PUBCHEM_SHAPE_SELFOVERLAP>
1424.046

> <PUBCHEM_SHAPE_VOLUME>
366.3

> <PUBCHEM_COORDINATE_TYPE>
2
5
10

$$$$
