101774199
  -OEChem-08282006023D

 56 59  0     1  0  0  0  0  0999 V2000
   -1.5803    0.0498    0.3747 O   0  0  0  0  0  0  0  0  0  0  0  0
   -3.8495   -1.8883   -0.1231 O   0  0  0  0  0  0  0  0  0  0  0  0
    1.5913    3.5857   -0.1297 O   0  0  0  0  0  0  0  0  0  0  0  0
   -3.9866   -0.7082    1.9061 O   0  0  0  0  0  0  0  0  0  0  0  0
    0.8507   -0.4777    0.3550 C   0  0  2  0  0  0  0  0  0  0  0  0
   -0.3026    0.5538   -0.0928 C   0  0  2  0  0  0  0  0  0  0  0  0
    2.2279    0.0908   -0.1562 C   0  0  2  0  0  0  0  0  0  0  0  0
    3.4600   -0.8858   -0.1099 C   0  0  0  0  0  0  0  0  0  0  0  0
   -0.0308    1.9368    0.5962 C   0  0  1  0  0  0  0  0  0  0  0  0
    0.6134   -1.9026   -0.2226 C   0  0  0  0  0  0  0  0  0  0  0  0
   -0.4736    0.7151   -1.6200 C   0  0  0  0  0  0  0  0  0  0  0  0
   -2.5435    0.0141   -0.6947 C   0  0  2  0  0  0  0  0  0  0  0  0
    2.5201    1.4715    0.4568 C   0  0  0  0  0  0  0  0  0  0  0  0
   -1.9672    0.8281   -1.8326 C   0  0  0  0  0  0  0  0  0  0  0  0
    3.0596   -2.2604   -0.6954 C   0  0  0  0  0  0  0  0  0  0  0  0
    1.8029   -2.8489   -0.0741 C   0  0  0  0  0  0  0  0  0  0  0  0
    0.7934   -0.6419    1.9066 C   0  0  0  0  0  0  0  0  0  0  0  0
    1.3714    2.4314    0.2403 C   0  0  0  0  0  0  0  0  0  0  0  0
   -3.8961    0.4774   -0.1826 C   0  0  0  0  0  0  0  0  0  0  0  0
    4.0731   -1.0656    1.2926 C   0  0  0  0  0  0  0  0  0  0  0  0
    4.5972   -0.3350   -1.0114 C   0  0  0  0  0  0  0  0  0  0  0  0
   -2.8646   -1.4288   -1.0645 C   0  0  0  0  0  0  0  0  0  0  0  0
   -1.0559    3.0427    0.3327 C   0  0  0  0  0  0  0  0  0  0  0  0
   -4.4106   -0.7541    0.5486 C   0  0  1  0  0  0  0  0  0  0  0  0
    2.0757    0.2746   -1.2309 H   0  0  0  0  0  0  0  0  0  0  0  0
   -0.0535    1.8056    1.6842 H   0  0  0  0  0  0  0  0  0  0  0  0
    0.3771   -1.8629   -1.2885 H   0  0  0  0  0  0  0  0  0  0  0  0
   -0.2507   -2.3647    0.2691 H   0  0  0  0  0  0  0  0  0  0  0  0
   -0.1176   -0.1542   -2.1763 H   0  0  0  0  0  0  0  0  0  0  0  0
    0.0649    1.5740   -2.0331 H   0  0  0  0  0  0  0  0  0  0  0  0
    3.4006    1.9190   -0.0154 H   0  0  0  0  0  0  0  0  0  0  0  0
    2.7196    1.4235    1.5307 H   0  0  0  0  0  0  0  0  0  0  0  0
   -2.2854    1.8725   -1.7651 H   0  0  0  0  0  0  0  0  0  0  0  0
   -2.2728    0.4743   -2.8226 H   0  0  0  0  0  0  0  0  0  0  0  0
    3.8833   -2.9768   -0.5816 H   0  0  0  0  0  0  0  0  0  0  0  0
    2.8917   -2.1612   -1.7768 H   0  0  0  0  0  0  0  0  0  0  0  0
    1.9772   -3.1063    0.9749 H   0  0  0  0  0  0  0  0  0  0  0  0
    1.5662   -3.7945   -0.5774 H   0  0  0  0  0  0  0  0  0  0  0  0
    1.1702    0.2267    2.4501 H   0  0  0  0  0  0  0  0  0  0  0  0
    1.3607   -1.5009    2.2657 H   0  0  0  0  0  0  0  0  0  0  0  0
   -0.2344   -0.8135    2.2465 H   0  0  0  0  0  0  0  0  0  0  0  0
   -4.5563    0.7036   -1.0287 H   0  0  0  0  0  0  0  0  0  0  0  0
   -3.8418    1.3481    0.4758 H   0  0  0  0  0  0  0  0  0  0  0  0
    5.4121   -1.0629   -1.1048 H   0  0  0  0  0  0  0  0  0  0  0  0
    4.2353   -0.1179   -2.0227 H   0  0  0  0  0  0  0  0  0  0  0  0
    5.0344    0.5828   -0.6059 H   0  0  0  0  0  0  0  0  0  0  0  0
    4.9555   -1.7160    1.2469 H   0  0  0  0  0  0  0  0  0  0  0  0
    4.4070   -0.1124    1.7149 H   0  0  0  0  0  0  0  0  0  0  0  0
    3.3909   -1.5259    2.0053 H   0  0  0  0  0  0  0  0  0  0  0  0
   -3.3201   -1.5027   -2.0584 H   0  0  0  0  0  0  0  0  0  0  0  0
   -2.0122   -2.1055   -1.0245 H   0  0  0  0  0  0  0  0  0  0  0  0
   -1.0404    3.3818   -0.7073 H   0  0  0  0  0  0  0  0  0  0  0  0
   -0.8302    3.9215    0.9489 H   0  0  0  0  0  0  0  0  0  0  0  0
   -2.0667    2.7252    0.5938 H   0  0  0  0  0  0  0  0  0  0  0  0
   -5.5037   -0.8087    0.5232 H   0  0  0  0  0  0  0  0  0  0  0  0
   -4.5852   -1.2837    2.4116 H   0  0  0  0  0  0  0  0  0  0  0  0
  1  6  1  0  0  0  0
  1 12  1  0  0  0  0
  2 22  1  0  0  0  0
  2 24  1  0  0  0  0
  3 18  2  0  0  0  0
  4 24  1  0  0  0  0
  4 56  1  0  0  0  0
  5  6  1  0  0  0  0
  5  7  1  0  0  0  0
  5 10  1  0  0  0  0
  5 17  1  0  0  0  0
  6  9  1  0  0  0  0
  6 11  1  0  0  0  0
  7  8  1  0  0  0  0
  7 13  1  0  0  0  0
  7 25  1  0  0  0  0
  8 15  1  0  0  0  0
  8 20  1  0  0  0  0
  8 21  1  0  0  0  0
  9 18  1  0  0  0  0
  9 23  1  0  0  0  0
  9 26  1  0  0  0  0
 10 16  1  0  0  0  0
 10 27  1  0  0  0  0
 10 28  1  0  0  0  0
 11 14  1  0  0  0  0
 11 29  1  0  0  0  0
 11 30  1  0  0  0  0
 12 14  1  0  0  0  0
 12 19  1  0  0  0  0
 12 22  1  0  0  0  0
 13 18  1  0  0  0  0
 13 31  1  0  0  0  0
 13 32  1  0  0  0  0
 14 33  1  0  0  0  0
 14 34  1  0  0  0  0
 15 16  1  0  0  0  0
 15 35  1  0  0  0  0
 15 36  1  0  0  0  0
 16 37  1  0  0  0  0
 16 38  1  0  0  0  0
 17 39  1  0  0  0  0
 17 40  1  0  0  0  0
 17 41  1  0  0  0  0
 19 24  1  0  0  0  0
 19 42  1  0  0  0  0
 19 43  1  0  0  0  0
 20 47  1  0  0  0  0
 20 48  1  0  0  0  0
 20 49  1  0  0  0  0
 21 44  1  0  0  0  0
 21 45  1  0  0  0  0
 21 46  1  0  0  0  0
 22 50  1  0  0  0  0
 22 51  1  0  0  0  0
 23 52  1  0  0  0  0
 23 53  1  0  0  0  0
 23 54  1  0  0  0  0
 24 55  1  0  0  0  0
M  END
> <PUBCHEM_COMPOUND_CID>
101774199

> <PUBCHEM_CONFORMER_RMSD>
0.6

> <PUBCHEM_CONFORMER_DIVERSEORDER>
1
2

> <PUBCHEM_MMFF94_PARTIAL_CHARGES>
12
1 -0.56
12 0.28
13 0.06
18 0.45
2 -0.56
22 0.28
24 0.56
3 -0.57
4 -0.68
56 0.4
6 0.28
9 0.06

> <PUBCHEM_EFFECTIVE_ROTOR_COUNT>
2.6

> <PUBCHEM_PHARMACOPHORE_FEATURES>
10
1 1 acceptor
1 2 acceptor
1 3 acceptor
1 4 acceptor
1 4 donor
3 8 20 21 hydrophobe
5 1 6 11 12 14 rings
5 2 12 19 22 24 rings
6 5 6 7 9 13 18 rings
6 5 7 8 10 15 16 rings

> <PUBCHEM_HEAVY_ATOM_COUNT>
24

> <PUBCHEM_ATOM_DEF_STEREO_COUNT>
6

> <PUBCHEM_ATOM_UDEF_STEREO_COUNT>
0

> <PUBCHEM_BOND_DEF_STEREO_COUNT>
0

> <PUBCHEM_BOND_UDEF_STEREO_COUNT>
0

> <PUBCHEM_ISOTOPIC_ATOM_COUNT>
0

> <PUBCHEM_COMPONENT_COUNT>
1

> <PUBCHEM_CACTVS_TAUTO_COUNT>
3

> <PUBCHEM_CONFORMER_ID>
0610F37700000001

> <PUBCHEM_MMFF94_ENERGY>
94.4568

> <PUBCHEM_FEATURE_SELFOVERLAP>
50.83

> <PUBCHEM_SHAPE_FINGERPRINT>
10366900 7 18040713684395942787
10863032 1 17914055553770802013
10967382 1 18268142252694390284
11578080 2 17058053702691660905
12035758 1 18336543945211538616
12077114 3 10087623919036379798
121448 382 16732992980995661034
12166972 35 17821732720131588548
12506688 2 18410855468871226687
12553582 1 18341890770977578678
12596599 1 17989211477187061087
12633257 1 18411702110273918203
12714826 92 18113894910481612013
12788726 201 18339368452959932904
13009979 54 17632026341906591915
13140716 1 18268982266888515682
13224815 77 17967813825326862958
13533116 47 18128252497138259007
13544653 18 18335424538963242807
13583140 156 17488731424054718849
14178342 30 18050837828703383594
14223421 5 18340481149752191868
14787075 74 18187652435416857646
14790565 3 18340779225152632568
15209289 33 18408045121588237819
15422964 175 18269549455853234814
15527383 91 18335431166450890225
16945 1 18341604893885963428
17349148 13 17895474701237499930
1813 80 18059588961680961004
18785283 64 18191307285008266892
19591789 44 18123188167263995678
19930381 70 18339641260397331672
20028762 73 18058444485988907319
20645477 70 18192130789410708607
20739085 24 18410582820058071464
21041028 32 18342739606839493761
221490 88 18265337389873778187
22182313 1 18267846364103385456
2255824 54 18340205322868504628
2334 1 17979905331133877750
23402539 116 18340193108335020494
23419403 2 17534939516455434464
23557571 272 17984689023080308058
23559900 14 18411691114935899225
23598291 2 17845650494637455381
238 59 17615921854913097077
2748010 2 18196065821067480868
3286 77 18261387879555352604
3323516 105 18409730685666404654
352729 6 16826698103553338316
3633792 109 18341321259390256575
3737641 26 18198076797664716150
458136 41 18048324632321145973
6287921 2 18190749836823127535
7097593 13 18201159953112448149
7364860 26 18340202019912001445
7495541 125 18114183072606546306
81228 2 17693067705233486441

> <PUBCHEM_SHAPE_MULTIPOLES>
470.43
7.49
3.09
1.4
1.76
1.77
-0.12
-3.85
-0.38
-1
-0.04
0.39
-0.16
0.31

> <PUBCHEM_SHAPE_SELFOVERLAP>
999.713

> <PUBCHEM_SHAPE_VOLUME>
261.2

> <PUBCHEM_COORDINATE_TYPE>
2
5
10

$$$$
