9801811
  -OEChem-08282009453D

 78 81  0     1  0  0  0  0  0999 V2000
    8.1031    0.4403    0.6787 O   0  0  0  0  0  0  0  0  0  0  0  0
   -0.2734    0.0229    0.1033 C   0  0  1  0  0  0  0  0  0  0  0  0
    0.6892   -1.0868    0.5703 C   0  0  2  0  0  0  0  0  0  0  0  0
    2.0739   -1.0012   -0.0794 C   0  0  1  0  0  0  0  0  0  0  0  0
    2.7086    0.3857    0.2286 C   0  0  1  0  0  0  0  0  0  0  0  0
   -1.5398   -0.4015    0.8863 C   0  0  2  0  0  0  0  0  0  0  0  0
    0.3291    1.3672    0.5349 C   0  0  0  0  0  0  0  0  0  0  0  0
   -0.1239   -2.3667    0.4022 C   0  0  0  0  0  0  0  0  0  0  0  0
    4.1271    0.5393   -0.4562 C   0  0  2  0  0  0  0  0  0  0  0  0
    1.7377    1.5662   -0.0512 C   0  0  0  0  0  0  0  0  0  0  0  0
   -1.5665   -1.9404    0.7319 C   0  0  0  0  0  0  0  0  0  0  0  0
    2.9866   -2.1223    0.4384 C   0  0  0  0  0  0  0  0  0  0  0  0
   -2.8479    0.2579    0.4738 C   0  0  1  0  0  0  0  0  0  0  0  0
   -0.5360    0.0281   -1.4233 C   0  0  0  0  0  0  0  0  0  0  0  0
    4.9603   -0.7423   -0.2943 C   0  0  0  0  0  0  0  0  0  0  0  0
    4.8768    1.7097    0.2485 C   0  0  0  0  0  0  0  0  0  0  0  0
    4.4316   -1.9061    0.1238 C   0  0  0  0  0  0  0  0  0  0  0  0
    3.9920    0.8419   -1.9670 C   0  0  0  0  0  0  0  0  0  0  0  0
   -4.0110   -0.2999    1.3211 C   0  0  0  0  0  0  0  0  0  0  0  0
    6.4292   -0.6718   -0.6289 C   0  0  0  0  0  0  0  0  0  0  0  0
   -2.7294    1.7812    0.5920 C   0  0  0  0  0  0  0  0  0  0  0  0
    6.3442    1.8443   -0.1413 C   0  0  0  0  0  0  0  0  0  0  0  0
    7.0427    0.5231    0.0609 C   0  0  0  0  0  0  0  0  0  0  0  0
   -5.3901    0.3385    1.0873 C   0  0  0  0  0  0  0  0  0  0  0  0
   -6.0039    0.1503   -0.3245 C   0  0  2  0  0  0  0  0  0  0  0  0
   -7.3470    0.9288   -0.4979 C   0  0  0  0  0  0  0  0  0  0  0  0
   -6.1270   -1.3554   -0.6666 C   0  0  0  0  0  0  0  0  0  0  0  0
   -7.1849    2.4315   -0.2348 C   0  0  0  0  0  0  0  0  0  0  0  0
   -8.4979    0.3806    0.3499 C   0  0  0  0  0  0  0  0  0  0  0  0
   -6.6533   -1.6433   -2.0665 C   0  0  0  0  0  0  0  0  0  0  0  0
    0.8465   -0.9689    1.6561 H   0  0  0  0  0  0  0  0  0  0  0  0
    1.9760   -1.1268   -1.1637 H   0  0  0  0  0  0  0  0  0  0  0  0
    2.8760    0.4013    1.3180 H   0  0  0  0  0  0  0  0  0  0  0  0
   -1.3711   -0.1885    1.9535 H   0  0  0  0  0  0  0  0  0  0  0  0
    0.3935    1.4203    1.6293 H   0  0  0  0  0  0  0  0  0  0  0  0
   -0.2558    2.2285    0.2155 H   0  0  0  0  0  0  0  0  0  0  0  0
    0.2193   -3.1612    1.0727 H   0  0  0  0  0  0  0  0  0  0  0  0
   -0.0633   -2.7488   -0.6230 H   0  0  0  0  0  0  0  0  0  0  0  0
    2.1512    2.4904    0.3680 H   0  0  0  0  0  0  0  0  0  0  0  0
    1.6393    1.7358   -1.1273 H   0  0  0  0  0  0  0  0  0  0  0  0
   -1.9065   -2.4158    1.6588 H   0  0  0  0  0  0  0  0  0  0  0  0
   -2.2352   -2.2674   -0.0726 H   0  0  0  0  0  0  0  0  0  0  0  0
    2.6697   -3.0743   -0.0045 H   0  0  0  0  0  0  0  0  0  0  0  0
    2.8898   -2.2310    1.5258 H   0  0  0  0  0  0  0  0  0  0  0  0
   -3.0729    0.0185   -0.5722 H   0  0  0  0  0  0  0  0  0  0  0  0
   -1.1580    0.8767   -1.7234 H   0  0  0  0  0  0  0  0  0  0  0  0
   -1.0449   -0.8802   -1.7615 H   0  0  0  0  0  0  0  0  0  0  0  0
    0.3854    0.1031   -2.0071 H   0  0  0  0  0  0  0  0  0  0  0  0
    4.8299    1.5646    1.3369 H   0  0  0  0  0  0  0  0  0  0  0  0
    4.3792    2.6642    0.0408 H   0  0  0  0  0  0  0  0  0  0  0  0
    5.0737   -2.7763    0.2385 H   0  0  0  0  0  0  0  0  0  0  0  0
    4.9587    0.8431   -2.4814 H   0  0  0  0  0  0  0  0  0  0  0  0
    3.3655    0.1006   -2.4738 H   0  0  0  0  0  0  0  0  0  0  0  0
    3.5549    1.8301   -2.1432 H   0  0  0  0  0  0  0  0  0  0  0  0
   -4.0928   -1.3847    1.2042 H   0  0  0  0  0  0  0  0  0  0  0  0
   -3.7665   -0.1443    2.3814 H   0  0  0  0  0  0  0  0  0  0  0  0
    6.9645   -1.5696   -0.2988 H   0  0  0  0  0  0  0  0  0  0  0  0
    6.5851   -0.5718   -1.7074 H   0  0  0  0  0  0  0  0  0  0  0  0
   -3.7003    2.2768    0.5182 H   0  0  0  0  0  0  0  0  0  0  0  0
   -2.2821    2.0869    1.5430 H   0  0  0  0  0  0  0  0  0  0  0  0
   -2.1683    2.2043   -0.2420 H   0  0  0  0  0  0  0  0  0  0  0  0
    6.4632    2.1493   -1.1855 H   0  0  0  0  0  0  0  0  0  0  0  0
    6.8258    2.6025    0.4857 H   0  0  0  0  0  0  0  0  0  0  0  0
   -5.3499    1.3947    1.3625 H   0  0  0  0  0  0  0  0  0  0  0  0
   -6.0714   -0.1163    1.8185 H   0  0  0  0  0  0  0  0  0  0  0  0
   -5.3008    0.5876   -1.0464 H   0  0  0  0  0  0  0  0  0  0  0  0
   -7.6463    0.8391   -1.5500 H   0  0  0  0  0  0  0  0  0  0  0  0
   -6.7509   -1.8702    0.0726 H   0  0  0  0  0  0  0  0  0  0  0  0
   -5.1368   -1.8205   -0.6115 H   0  0  0  0  0  0  0  0  0  0  0  0
   -8.0733    2.9737   -0.5778 H   0  0  0  0  0  0  0  0  0  0  0  0
   -7.0632    2.6538    0.8297 H   0  0  0  0  0  0  0  0  0  0  0  0
   -6.3228    2.8341   -0.7764 H   0  0  0  0  0  0  0  0  0  0  0  0
   -8.2833    0.4531    1.4205 H   0  0  0  0  0  0  0  0  0  0  0  0
   -8.7129   -0.6651    0.1132 H   0  0  0  0  0  0  0  0  0  0  0  0
   -9.4159    0.9480    0.1596 H   0  0  0  0  0  0  0  0  0  0  0  0
   -7.7045   -1.3602   -2.1693 H   0  0  0  0  0  0  0  0  0  0  0  0
   -6.5808   -2.7147   -2.2807 H   0  0  0  0  0  0  0  0  0  0  0  0
   -6.0713   -1.1072   -2.8227 H   0  0  0  0  0  0  0  0  0  0  0  0
  1 23  2  0  0  0  0
  2  3  1  0  0  0  0
  2  6  1  0  0  0  0
  2  7  1  0  0  0  0
  2 14  1  0  0  0  0
  3  4  1  0  0  0  0
  3  8  1  0  0  0  0
  3 31  1  0  0  0  0
  4  5  1  0  0  0  0
  4 12  1  0  0  0  0
  4 32  1  0  0  0  0
  5  9  1  0  0  0  0
  5 10  1  0  0  0  0
  5 33  1  0  0  0  0
  6 11  1  0  0  0  0
  6 13  1  0  0  0  0
  6 34  1  0  0  0  0
  7 10  1  0  0  0  0
  7 35  1  0  0  0  0
  7 36  1  0  0  0  0
  8 11  1  0  0  0  0
  8 37  1  0  0  0  0
  8 38  1  0  0  0  0
  9 15  1  0  0  0  0
  9 16  1  0  0  0  0
  9 18  1  0  0  0  0
 10 39  1  0  0  0  0
 10 40  1  0  0  0  0
 11 41  1  0  0  0  0
 11 42  1  0  0  0  0
 12 17  1  0  0  0  0
 12 43  1  0  0  0  0
 12 44  1  0  0  0  0
 13 19  1  0  0  0  0
 13 21  1  0  0  0  0
 13 45  1  0  0  0  0
 14 46  1  0  0  0  0
 14 47  1  0  0  0  0
 14 48  1  0  0  0  0
 15 17  2  0  0  0  0
 15 20  1  0  0  0  0
 16 22  1  0  0  0  0
 16 49  1  0  0  0  0
 16 50  1  0  0  0  0
 17 51  1  0  0  0  0
 18 52  1  0  0  0  0
 18 53  1  0  0  0  0
 18 54  1  0  0  0  0
 19 24  1  0  0  0  0
 19 55  1  0  0  0  0
 19 56  1  0  0  0  0
 20 23  1  0  0  0  0
 20 57  1  0  0  0  0
 20 58  1  0  0  0  0
 21 59  1  0  0  0  0
 21 60  1  0  0  0  0
 21 61  1  0  0  0  0
 22 23  1  0  0  0  0
 22 62  1  0  0  0  0
 22 63  1  0  0  0  0
 24 25  1  0  0  0  0
 24 64  1  0  0  0  0
 24 65  1  0  0  0  0
 25 26  1  0  0  0  0
 25 27  1  0  0  0  0
 25 66  1  0  0  0  0
 26 28  1  0  0  0  0
 26 29  1  0  0  0  0
 26 67  1  0  0  0  0
 27 30  1  0  0  0  0
 27 68  1  0  0  0  0
 27 69  1  0  0  0  0
 28 70  1  0  0  0  0
 28 71  1  0  0  0  0
 28 72  1  0  0  0  0
 29 73  1  0  0  0  0
 29 74  1  0  0  0  0
 29 75  1  0  0  0  0
 30 76  1  0  0  0  0
 30 77  1  0  0  0  0
 30 78  1  0  0  0  0
M  END
> <PUBCHEM_COMPOUND_CID>
9801811

> <PUBCHEM_CONFORMER_RMSD>
1

> <PUBCHEM_CONFORMER_DIVERSEORDER>
1
7
8
9
4
3
2
5
6

> <PUBCHEM_MMFF94_PARTIAL_CHARGES>
9
1 -0.57
12 0.14
15 -0.28
17 -0.29
20 0.2
22 0.06
23 0.45
51 0.15
9 0.14

> <PUBCHEM_EFFECTIVE_ROTOR_COUNT>
7.8

> <PUBCHEM_PHARMACOPHORE_FEATURES>
9
1 1 acceptor
1 21 hydrophobe
1 30 hydrophobe
3 26 28 29 hydrophobe
5 2 3 6 8 11 rings
6 13 19 24 25 26 27 hydrophobe
6 2 3 4 5 7 10 rings
6 4 5 9 12 15 17 rings
6 9 15 16 20 22 23 rings

> <PUBCHEM_HEAVY_ATOM_COUNT>
30

> <PUBCHEM_ATOM_DEF_STEREO_COUNT>
8

> <PUBCHEM_ATOM_UDEF_STEREO_COUNT>
0

> <PUBCHEM_BOND_DEF_STEREO_COUNT>
0

> <PUBCHEM_BOND_UDEF_STEREO_COUNT>
0

> <PUBCHEM_ISOTOPIC_ATOM_COUNT>
0

> <PUBCHEM_COMPONENT_COUNT>
1

> <PUBCHEM_CACTVS_TAUTO_COUNT>
5

> <PUBCHEM_CONFORMER_ID>
0095905300000001

> <PUBCHEM_MMFF94_ENERGY>
90.3428

> <PUBCHEM_FEATURE_SELFOVERLAP>
45.776

> <PUBCHEM_SHAPE_FINGERPRINT>
10 15 17967814981649011752
10411042 1 17831861249401717434
11135609 187 18411134723571625515
11135926 11 18186796985796540507
11315181 36 17489590069948576611
12082328 90 18409166619976489335
12236239 1 17989209243598020243
12838862 33 18337379505397892384
13533116 47 18341895156566605226
13690498 29 17988067999097200207
13782708 43 13542466436737692909
14117953 113 18260838094546969700
14251764 18 18202003244060405200
14856354 85 16200152110694353437
15131766 46 15794291707015767958
15142383 8 17603305956007376040
15183329 4 18060138730717256619
15352257 5 12175618478058392597
15439362 3 17982444108211066352
15461852 350 18202005464431903652
1577012 14 18412258429029858311
15849732 13 18408888442590215269
18681886 176 17917702539846876371
20157964 124 18409452457727395082
21150785 3 17203328913978008969
21298829 104 18334859415629814781
21792934 111 18335411323839113672
23559900 14 18338796839730564529
255183 451 17912371923103957702
2838139 119 18260830423424512293
335352 9 18410300207948456550
350125 39 18335701615940915081
3633792 109 18340772546092703232
4073 2 18041003968540579699
4325135 7 18272089388122364853
4760202 170 18411691072525056661
5104073 3 18189065209079298344
54039377 194 17916582181128880151
59755656 215 18334296448311537560
6009941 240 17313391153083774347
6086070 43 17632293527268841259
6328613 192 18411700985192420315

> <PUBCHEM_SHAPE_MULTIPOLES>
611.52
22.98
2.23
1.22
15.85
0.24
-0.49
-6.27
-3.47
0.2
0.04
1
0.18
-0.91

> <PUBCHEM_SHAPE_SELFOVERLAP>
1264.299

> <PUBCHEM_SHAPE_VOLUME>
350

> <PUBCHEM_COORDINATE_TYPE>
2
5
10

$$$$
