107372
  -OEChem-08302004233D

 27 27  0     1  0  0  0  0  0999 V2000
   -0.4087   -2.2680   -0.0819 O   0  0  0  0  0  0  0  0  0  0  0  0
    2.1641    0.2498   -0.3403 C   0  0  1  0  0  0  0  0  0  0  0  0
    1.6168   -1.0429    0.2602 C   0  0  0  0  0  0  0  0  0  0  0  0
    1.4009    1.4573    0.2118 C   0  0  0  0  0  0  0  0  0  0  0  0
   -0.7023    0.0806    0.0330 C   0  0  0  0  0  0  0  0  0  0  0  0
   -2.1876   -0.0687   -0.0645 C   0  0  0  0  0  0  0  0  0  0  0  0
    0.1238   -1.1648    0.0351 C   0  0  0  0  0  0  0  0  0  0  0  0
   -0.0842    1.2661    0.1454 C   0  0  0  0  0  0  0  0  0  0  0  0
    3.6620    0.3852   -0.0789 C   0  0  0  0  0  0  0  0  0  0  0  0
   -2.8604    0.4762    1.1927 C   0  0  0  0  0  0  0  0  0  0  0  0
   -2.7244    0.6292   -1.3126 C   0  0  0  0  0  0  0  0  0  0  0  0
    2.0122    0.2164   -1.4285 H   0  0  0  0  0  0  0  0  0  0  0  0
    1.8029   -1.0950    1.3392 H   0  0  0  0  0  0  0  0  0  0  0  0
    2.1050   -1.9023   -0.2138 H   0  0  0  0  0  0  0  0  0  0  0  0
    1.6703    2.3465   -0.3710 H   0  0  0  0  0  0  0  0  0  0  0  0
    1.6818    1.6589    1.2527 H   0  0  0  0  0  0  0  0  0  0  0  0
   -2.4679   -1.1252   -0.1448 H   0  0  0  0  0  0  0  0  0  0  0  0
   -0.6729    2.1792    0.1840 H   0  0  0  0  0  0  0  0  0  0  0  0
    4.2087   -0.4610   -0.5083 H   0  0  0  0  0  0  0  0  0  0  0  0
    4.0535    1.3022   -0.5317 H   0  0  0  0  0  0  0  0  0  0  0  0
    3.8782    0.4180    0.9943 H   0  0  0  0  0  0  0  0  0  0  0  0
   -2.7254    1.5577    1.3041 H   0  0  0  0  0  0  0  0  0  0  0  0
   -2.4681   -0.0096    2.0934 H   0  0  0  0  0  0  0  0  0  0  0  0
   -3.9391    0.2855    1.1599 H   0  0  0  0  0  0  0  0  0  0  0  0
   -2.2347    0.2508   -2.2170 H   0  0  0  0  0  0  0  0  0  0  0  0
   -2.5801    1.7147   -1.2777 H   0  0  0  0  0  0  0  0  0  0  0  0
   -3.7997    0.4465   -1.4188 H   0  0  0  0  0  0  0  0  0  0  0  0
  1  7  2  0  0  0  0
  2  3  1  0  0  0  0
  2  4  1  0  0  0  0
  2  9  1  0  0  0  0
  2 12  1  0  0  0  0
  3  7  1  0  0  0  0
  3 13  1  0  0  0  0
  3 14  1  0  0  0  0
  4  8  1  0  0  0  0
  4 15  1  0  0  0  0
  4 16  1  0  0  0  0
  5  6  1  0  0  0  0
  5  7  1  0  0  0  0
  5  8  2  0  0  0  0
  6 10  1  0  0  0  0
  6 11  1  0  0  0  0
  6 17  1  0  0  0  0
  8 18  1  0  0  0  0
  9 19  1  0  0  0  0
  9 20  1  0  0  0  0
  9 21  1  0  0  0  0
 10 22  1  0  0  0  0
 10 23  1  0  0  0  0
 10 24  1  0  0  0  0
 11 25  1  0  0  0  0
 11 26  1  0  0  0  0
 11 27  1  0  0  0  0
M  END
> <PUBCHEM_COMPOUND_CID>
107372

> <PUBCHEM_CONFORMER_RMSD>
0.4

> <PUBCHEM_CONFORMER_DIVERSEORDER>
3
5
7
8
10
4
2
1
9
6

> <PUBCHEM_MMFF94_PARTIAL_CHARGES>
8
1 -0.57
18 0.15
3 0.06
4 0.14
5 -0.12
6 0.14
7 0.49
8 -0.29

> <PUBCHEM_EFFECTIVE_ROTOR_COUNT>
1.6

> <PUBCHEM_PHARMACOPHORE_FEATURES>
3
1 1 acceptor
3 6 10 11 hydrophobe
6 2 3 4 5 7 8 rings

> <PUBCHEM_HEAVY_ATOM_COUNT>
11

> <PUBCHEM_ATOM_DEF_STEREO_COUNT>
0

> <PUBCHEM_ATOM_UDEF_STEREO_COUNT>
1

> <PUBCHEM_BOND_DEF_STEREO_COUNT>
0

> <PUBCHEM_BOND_UDEF_STEREO_COUNT>
0

> <PUBCHEM_ISOTOPIC_ATOM_COUNT>
0

> <PUBCHEM_COMPONENT_COUNT>
1

> <PUBCHEM_CACTVS_TAUTO_COUNT>
5

> <PUBCHEM_CONFORMER_ID>
0001A36C00000003

> <PUBCHEM_MMFF94_ENERGY>
10.6596

> <PUBCHEM_FEATURE_SELFOVERLAP>
15.223

> <PUBCHEM_SHAPE_FINGERPRINT>
12932764 1 18040994081066602976
14325111 11 18410294717888280840
14993402 34 18412822495146833884
15219456 202 17895476908470426829
15310529 11 17095239228813141256
15775835 57 18407757040809043871
16945 1 18410854360885689304
17844478 74 17894642452106810329
18186145 218 18342742918454152484
193761 8 17762901369610912176
20645476 183 17677066736464535534
21040471 1 18338232773106393928
21293036 1 18411412934019444957
21501502 16 18050853517965831372
23235685 24 18413672413387675048
23402539 116 18059852831887476812
23402655 69 18266440033223862021
23552423 10 17973159823097365724
23559900 14 18270970141827031516
2748010 2 18052256486212893436
5084963 1 18041846228379503689
528862 383 18187640254757692098
528886 8 18412825772180526537
63268167 104 18341608187841042833
6333449 129 18270398424879780298
81228 2 17759800742351894331

> <PUBCHEM_SHAPE_MULTIPOLES>
220.51
4.69
1.6
0.93
0.94
0.63
0.05
-1.13
0.17
0.22
-0.03
-0.78
-0.16
0.03

> <PUBCHEM_SHAPE_SELFOVERLAP>
437.498

> <PUBCHEM_SHAPE_VOLUME>
132

> <PUBCHEM_COORDINATE_TYPE>
2
5
10

$$$$
