122372769
  -OEChem-08282007513D

 63 66  0     1  0  0  0  0  0999 V2000
    0.1337   -1.3534    1.0636 O   0  0  0  0  0  0  0  0  0  0  0  0
    1.4251   -0.1206   -0.5155 O   0  0  0  0  0  0  0  0  0  0  0  0
    3.9353    1.3906   -0.6272 O   0  0  0  0  0  0  0  0  0  0  0  0
   -3.6472   -0.1483   -1.7500 O   0  0  0  0  0  0  0  0  0  0  0  0
    4.9639   -0.7197   -0.4007 O   0  0  0  0  0  0  0  0  0  0  0  0
   -5.9508    0.2332   -0.2996 O   0  0  0  0  0  0  0  0  0  0  0  0
    3.4692    2.9366    1.0014 O   0  0  0  0  0  0  0  0  0  0  0  0
   -1.0016    0.0163   -0.6439 C   0  0  1  0  0  0  0  0  0  0  0  0
   -2.2955   -0.1827    0.2138 C   0  0  2  0  0  0  0  0  0  0  0  0
    0.2482   -0.1229    0.3134 C   0  0  1  0  0  0  0  0  0  0  0  0
   -2.2788   -1.6026    0.8731 C   0  0  0  0  0  0  0  0  0  0  0  0
   -0.8892   -2.2390    0.5757 C   0  0  1  0  0  0  0  0  0  0  0  0
   -0.8998   -1.1511   -1.6685 C   0  0  0  0  0  0  0  0  0  0  0  0
   -0.6539   -2.4632   -0.9218 C   0  0  0  0  0  0  0  0  0  0  0  0
    0.4030    1.0367    1.3142 C   0  0  0  0  0  0  0  0  0  0  0  0
   -1.0134    1.3521   -1.4048 C   0  0  0  0  0  0  0  0  0  0  0  0
   -3.4046   -2.5376    0.3814 C   0  0  0  0  0  0  0  0  0  0  0  0
   -2.4576   -1.4515    2.4014 C   0  0  0  0  0  0  0  0  0  0  0  0
   -3.5633    0.1043   -0.5478 C   0  0  0  0  0  0  0  0  0  0  0  0
    1.6637    0.8750    2.1615 C   0  0  0  0  0  0  0  0  0  0  0  0
    2.6496   -0.3790    0.1720 C   0  0  2  0  0  0  0  0  0  0  0  0
    2.8944    0.5858    1.3195 C   0  0  1  0  0  0  0  0  0  0  0  0
    3.7807   -0.0299   -0.7768 C   0  0  1  0  0  0  0  0  0  0  0  0
   -4.7251    0.7063    0.2347 C   0  0  1  0  0  0  0  0  0  0  0  0
    3.4371    1.7891    0.5859 C   0  0  0  0  0  0  0  0  0  0  0  0
   -4.7239    2.2351    0.2170 C   0  0  0  0  0  0  0  0  0  0  0  0
   -4.8173    2.8330   -1.1822 C   0  0  0  0  0  0  0  0  0  0  0  0
    6.0458   -0.4146   -1.2709 C   0  0  0  0  0  0  0  0  0  0  0  0
    7.2725   -1.1778   -0.8188 C   0  0  0  0  0  0  0  0  0  0  0  0
   -2.2709    0.5846    0.9975 H   0  0  0  0  0  0  0  0  0  0  0  0
   -0.7763   -3.1882    1.1116 H   0  0  0  0  0  0  0  0  0  0  0  0
   -0.0717   -0.9803   -2.3690 H   0  0  0  0  0  0  0  0  0  0  0  0
   -1.7801   -1.2522   -2.3058 H   0  0  0  0  0  0  0  0  0  0  0  0
   -1.2938   -3.2569   -1.3204 H   0  0  0  0  0  0  0  0  0  0  0  0
    0.3841   -2.7790   -1.0854 H   0  0  0  0  0  0  0  0  0  0  0  0
   -0.4495    1.0994    1.9964 H   0  0  0  0  0  0  0  0  0  0  0  0
    0.4768    1.9917    0.7818 H   0  0  0  0  0  0  0  0  0  0  0  0
   -0.0318    1.5696   -1.8401 H   0  0  0  0  0  0  0  0  0  0  0  0
   -1.2762    2.1852   -0.7444 H   0  0  0  0  0  0  0  0  0  0  0  0
   -1.7262    1.3514   -2.2348 H   0  0  0  0  0  0  0  0  0  0  0  0
   -2.3938   -2.4258    2.8996 H   0  0  0  0  0  0  0  0  0  0  0  0
   -3.4318   -1.0184    2.6498 H   0  0  0  0  0  0  0  0  0  0  0  0
   -1.6894   -0.8093    2.8438 H   0  0  0  0  0  0  0  0  0  0  0  0
   -3.2717   -3.5467    0.7894 H   0  0  0  0  0  0  0  0  0  0  0  0
   -3.4279   -2.6308   -0.7084 H   0  0  0  0  0  0  0  0  0  0  0  0
   -4.3903   -2.1919    0.7093 H   0  0  0  0  0  0  0  0  0  0  0  0
    1.8101    1.7733    2.7726 H   0  0  0  0  0  0  0  0  0  0  0  0
    1.5138    0.0434    2.8615 H   0  0  0  0  0  0  0  0  0  0  0  0
    2.6766   -1.4269    0.4894 H   0  0  0  0  0  0  0  0  0  0  0  0
    3.7093    0.2257    1.9602 H   0  0  0  0  0  0  0  0  0  0  0  0
    3.5188   -0.2523   -1.8182 H   0  0  0  0  0  0  0  0  0  0  0  0
   -4.6779    0.3610    1.2715 H   0  0  0  0  0  0  0  0  0  0  0  0
   -3.8147    2.6110    0.7001 H   0  0  0  0  0  0  0  0  0  0  0  0
   -5.5804    2.5986    0.7976 H   0  0  0  0  0  0  0  0  0  0  0  0
   -5.9806   -0.7290   -0.1639 H   0  0  0  0  0  0  0  0  0  0  0  0
   -5.7111    2.4830   -1.7078 H   0  0  0  0  0  0  0  0  0  0  0  0
   -3.9404    2.5845   -1.7861 H   0  0  0  0  0  0  0  0  0  0  0  0
   -4.8734    3.9245   -1.1171 H   0  0  0  0  0  0  0  0  0  0  0  0
    5.7894   -0.7041   -2.2962 H   0  0  0  0  0  0  0  0  0  0  0  0
    6.2615    0.6591   -1.2477 H   0  0  0  0  0  0  0  0  0  0  0  0
    7.5369   -0.9083    0.2091 H   0  0  0  0  0  0  0  0  0  0  0  0
    7.0801   -2.2558   -0.8256 H   0  0  0  0  0  0  0  0  0  0  0  0
    8.1259   -0.9676   -1.4694 H   0  0  0  0  0  0  0  0  0  0  0  0
  1 10  1  0  0  0  0
  1 12  1  0  0  0  0
  2 10  1  0  0  0  0
  2 21  1  0  0  0  0
  3 23  1  0  0  0  0
  3 25  1  0  0  0  0
  4 19  2  0  0  0  0
  5 23  1  0  0  0  0
  5 28  1  0  0  0  0
  6 24  1  0  0  0  0
  6 55  1  0  0  0  0
  7 25  2  0  0  0  0
  8  9  1  0  0  0  0
  8 10  1  0  0  0  0
  8 13  1  0  0  0  0
  8 16  1  0  0  0  0
  9 11  1  0  0  0  0
  9 19  1  0  0  0  0
  9 30  1  0  0  0  0
 10 15  1  0  0  0  0
 11 12  1  0  0  0  0
 11 17  1  0  0  0  0
 11 18  1  0  0  0  0
 12 14  1  0  0  0  0
 12 31  1  0  0  0  0
 13 14  1  0  0  0  0
 13 32  1  0  0  0  0
 13 33  1  0  0  0  0
 14 34  1  0  0  0  0
 14 35  1  0  0  0  0
 15 20  1  0  0  0  0
 15 36  1  0  0  0  0
 15 37  1  0  0  0  0
 16 38  1  0  0  0  0
 16 39  1  0  0  0  0
 16 40  1  0  0  0  0
 17 44  1  0  0  0  0
 17 45  1  0  0  0  0
 17 46  1  0  0  0  0
 18 41  1  0  0  0  0
 18 42  1  0  0  0  0
 18 43  1  0  0  0  0
 19 24  1  0  0  0  0
 20 22  1  0  0  0  0
 20 47  1  0  0  0  0
 20 48  1  0  0  0  0
 21 22  1  0  0  0  0
 21 23  1  0  0  0  0
 21 49  1  0  0  0  0
 22 25  1  0  0  0  0
 22 50  1  0  0  0  0
 23 51  1  0  0  0  0
 24 26  1  0  0  0  0
 24 52  1  0  0  0  0
 26 27  1  0  0  0  0
 26 53  1  0  0  0  0
 26 54  1  0  0  0  0
 27 56  1  0  0  0  0
 27 57  1  0  0  0  0
 27 58  1  0  0  0  0
 28 29  1  0  0  0  0
 28 59  1  0  0  0  0
 28 60  1  0  0  0  0
 29 61  1  0  0  0  0
 29 62  1  0  0  0  0
 29 63  1  0  0  0  0
M  END
> <PUBCHEM_COMPOUND_CID>
122372769

> <PUBCHEM_CONFORMER_RMSD>
0.8

> <PUBCHEM_CONFORMER_DIVERSEORDER>
1
7
11
6
8
4
10
12
5
3
2
9

> <PUBCHEM_MMFF94_PARTIAL_CHARGES>
18
1 -0.56
10 0.56
12 0.28
19 0.45
2 -0.56
21 0.28
22 0.06
23 0.56
24 0.34
25 0.66
28 0.28
3 -0.43
4 -0.57
5 -0.56
55 0.4
6 -0.68
7 -0.57
9 0.06

> <PUBCHEM_EFFECTIVE_ROTOR_COUNT>
7

> <PUBCHEM_PHARMACOPHORE_FEATURES>
12
1 1 acceptor
1 2 acceptor
1 27 hydrophobe
1 4 acceptor
1 5 acceptor
1 6 acceptor
1 6 donor
1 7 acceptor
3 11 17 18 hydrophobe
5 3 21 22 23 25 rings
6 2 10 15 20 21 22 rings
8 1 8 9 10 11 12 13 14 rings

> <PUBCHEM_HEAVY_ATOM_COUNT>
29

> <PUBCHEM_ATOM_DEF_STEREO_COUNT>
8

> <PUBCHEM_ATOM_UDEF_STEREO_COUNT>
0

> <PUBCHEM_BOND_DEF_STEREO_COUNT>
0

> <PUBCHEM_BOND_UDEF_STEREO_COUNT>
0

> <PUBCHEM_ISOTOPIC_ATOM_COUNT>
0

> <PUBCHEM_COMPONENT_COUNT>
1

> <PUBCHEM_CACTVS_TAUTO_COUNT>
10

> <PUBCHEM_CONFORMER_ID>
074B42A100000001

> <PUBCHEM_MMFF94_ENERGY>
85.9075

> <PUBCHEM_FEATURE_SELFOVERLAP>
61.172

> <PUBCHEM_SHAPE_FINGERPRINT>
10165383 225 18188214195363358917
10670039 82 18260827047195453445
10674148 151 17530971242506216270
10863032 1 18335696152784855787
10948715 1 18411131416731481507
11405975 8 18334008423936981720
11545043 162 18335709381215380242
11578080 2 18128532863354115592
11796584 16 18410580574523437438
12011746 2 18334009489289343973
121448 382 12823301187035561309
12166972 35 14979665590057579914
12236239 1 16226047790575338062
12553582 1 16009021830356366286
12788726 201 18057886831834805928
13224815 77 13190325881800411090
13544592 145 18413107273264754768
13583140 156 17702664513213678730
13782708 43 18270126845339759054
14341114 328 16008748000595827489
14840074 17 14634871963333150931
14955137 171 17531263763374213661
15183329 4 18271807874243106636
15238133 3 18263911164405020192
17349148 13 14620799322725605669
192875 21 15195286442935238331
200 152 14836122156749950955
21033648 29 18272362109623729169
21859007 373 18340473483832128912
23402539 116 11599717359893118449
23419403 2 17907055844164672459
23559900 14 18341893030694625408
23566358 27 15719937048055422482
2838139 119 18201717319793488245
350125 39 18116709617177803980
4098825 35 18261962937855330084
4325135 7 9007052461612733786
469060 322 10881979357376919304
5104073 3 17895468236973973368
5265222 85 18263097655472631958
59755656 520 18333450924339672591
633830 44 18340756117826952069
7399639 24 16836543070649601256

> <PUBCHEM_SHAPE_MULTIPOLES>
555.72
12.45
2.64
1.73
11.77
0.39
0.47
2.82
-4.16
-1.97
0.18
-0.06
-0.04
1.91

> <PUBCHEM_SHAPE_SELFOVERLAP>
1182.362

> <PUBCHEM_SHAPE_VOLUME>
306.9

> <PUBCHEM_COORDINATE_TYPE>
2
5
10

$$$$
