102187096
  -OEChem-08282005573D

 54 57  0     1  0  0  0  0  0999 V2000
    1.3471    0.0242    0.3007 O   0  0  0  0  0  0  0  0  0  0  0  0
   -0.9782    3.6084    0.6244 O   0  0  0  0  0  0  0  0  0  0  0  0
   -2.9354    1.8807    0.7553 O   0  0  0  0  0  0  0  0  0  0  0  0
    3.7774   -1.4072    1.8512 O   0  0  0  0  0  0  0  0  0  0  0  0
   -0.7959   -0.3475   -0.9357 C   0  0  2  0  0  0  0  0  0  0  0  0
    0.5989    0.4692   -0.8651 C   0  0  1  0  0  0  0  0  0  0  0  0
   -1.5835   -0.1165    0.4067 C   0  0  2  0  0  0  0  0  0  0  0  0
    0.3004    2.0010   -0.6634 C   0  0  1  0  0  0  0  0  0  0  0  0
   -2.8190   -1.0403    0.6956 C   0  0  0  0  0  0  0  0  0  0  0  0
   -0.5367   -1.8726   -1.0943 C   0  0  0  0  0  0  0  0  0  0  0  0
    1.5308    0.1853   -2.0672 C   0  0  0  0  0  0  0  0  0  0  0  0
   -0.5762    2.2460    0.5831 C   0  0  2  0  0  0  0  0  0  0  0  0
   -2.3954   -2.5142    0.4790 C   0  0  0  0  0  0  0  0  0  0  0  0
   -1.8249    1.3853    0.5791 C   0  0  0  0  0  0  0  0  0  0  0  0
    2.5969   -0.5649   -0.0827 C   0  0  2  0  0  0  0  0  0  0  0  0
   -1.7584   -2.7625   -0.8806 C   0  0  0  0  0  0  0  0  0  0  0  0
   -1.6163    0.1413   -2.1640 C   0  0  0  0  0  0  0  0  0  0  0  0
    2.5197   -0.8466   -1.5672 C   0  0  0  0  0  0  0  0  0  0  0  0
    1.5496    2.8934   -0.5179 C   0  0  0  0  0  0  0  0  0  0  0  0
   -4.0849   -0.7569   -0.1395 C   0  0  0  0  0  0  0  0  0  0  0  0
   -3.2250   -0.9056    2.1866 C   0  0  0  0  0  0  0  0  0  0  0  0
    2.8910   -1.8015    0.7779 C   0  0  0  0  0  0  0  0  0  0  0  0
    3.7181    0.3175    0.3358 C   0  0  0  0  0  0  0  0  0  0  0  0
    4.3001   -0.2160    1.4022 C   0  0  0  0  0  0  0  0  0  0  0  0
   -0.8807   -0.3598    1.2193 H   0  0  0  0  0  0  0  0  0  0  0  0
   -0.2305    2.3723   -1.5496 H   0  0  0  0  0  0  0  0  0  0  0  0
    0.2182   -2.1955   -0.3706 H   0  0  0  0  0  0  0  0  0  0  0  0
   -0.1347   -2.0873   -2.0911 H   0  0  0  0  0  0  0  0  0  0  0  0
    2.0846    1.0717   -2.3828 H   0  0  0  0  0  0  0  0  0  0  0  0
    1.0204   -0.1689   -2.9651 H   0  0  0  0  0  0  0  0  0  0  0  0
   -0.0211    2.0306    1.5038 H   0  0  0  0  0  0  0  0  0  0  0  0
   -3.2579   -3.1823    0.5988 H   0  0  0  0  0  0  0  0  0  0  0  0
   -1.6751   -2.8074    1.2552 H   0  0  0  0  0  0  0  0  0  0  0  0
   -2.4895   -2.6240   -1.6826 H   0  0  0  0  0  0  0  0  0  0  0  0
   -1.4450   -3.8121   -0.9391 H   0  0  0  0  0  0  0  0  0  0  0  0
   -2.1179    1.0960   -1.9804 H   0  0  0  0  0  0  0  0  0  0  0  0
   -2.3829   -0.5716   -2.4694 H   0  0  0  0  0  0  0  0  0  0  0  0
   -0.9922    0.2812   -3.0501 H   0  0  0  0  0  0  0  0  0  0  0  0
    2.1368   -1.8544   -1.7579 H   0  0  0  0  0  0  0  0  0  0  0  0
    3.4857   -0.7748   -2.0787 H   0  0  0  0  0  0  0  0  0  0  0  0
    2.0949    2.6700    0.4037 H   0  0  0  0  0  0  0  0  0  0  0  0
    1.2653    3.9510   -0.4740 H   0  0  0  0  0  0  0  0  0  0  0  0
    2.2379    2.8039   -1.3599 H   0  0  0  0  0  0  0  0  0  0  0  0
   -4.0095   -1.6258    2.4474 H   0  0  0  0  0  0  0  0  0  0  0  0
   -2.3743   -1.0957    2.8507 H   0  0  0  0  0  0  0  0  0  0  0  0
   -3.9438   -0.9158   -1.2071 H   0  0  0  0  0  0  0  0  0  0  0  0
   -4.8980   -1.4298    0.1614 H   0  0  0  0  0  0  0  0  0  0  0  0
   -4.4628    0.2587   -0.0028 H   0  0  0  0  0  0  0  0  0  0  0  0
   -3.6116    0.0915    2.4184 H   0  0  0  0  0  0  0  0  0  0  0  0
    3.4053   -2.5868    0.2101 H   0  0  0  0  0  0  0  0  0  0  0  0
    1.9876   -2.2255    1.2283 H   0  0  0  0  0  0  0  0  0  0  0  0
    3.9964    1.2555   -0.1184 H   0  0  0  0  0  0  0  0  0  0  0  0
   -1.4274    3.7554    1.4743 H   0  0  0  0  0  0  0  0  0  0  0  0
    5.1080    0.1796    1.9909 H   0  0  0  0  0  0  0  0  0  0  0  0
  1  6  1  0  0  0  0
  1 15  1  0  0  0  0
  2 12  1  0  0  0  0
  2 53  1  0  0  0  0
  3 14  2  0  0  0  0
  4 22  1  0  0  0  0
  4 24  1  0  0  0  0
  5  6  1  0  0  0  0
  5  7  1  0  0  0  0
  5 10  1  0  0  0  0
  5 17  1  0  0  0  0
  6  8  1  0  0  0  0
  6 11  1  0  0  0  0
  7  9  1  0  0  0  0
  7 14  1  0  0  0  0
  7 25  1  0  0  0  0
  8 12  1  0  0  0  0
  8 19  1  0  0  0  0
  8 26  1  0  0  0  0
  9 13  1  0  0  0  0
  9 20  1  0  0  0  0
  9 21  1  0  0  0  0
 10 16  1  0  0  0  0
 10 27  1  0  0  0  0
 10 28  1  0  0  0  0
 11 18  1  0  0  0  0
 11 29  1  0  0  0  0
 11 30  1  0  0  0  0
 12 14  1  0  0  0  0
 12 31  1  0  0  0  0
 13 16  1  0  0  0  0
 13 32  1  0  0  0  0
 13 33  1  0  0  0  0
 15 18  1  0  0  0  0
 15 22  1  0  0  0  0
 15 23  1  0  0  0  0
 16 34  1  0  0  0  0
 16 35  1  0  0  0  0
 17 36  1  0  0  0  0
 17 37  1  0  0  0  0
 17 38  1  0  0  0  0
 18 39  1  0  0  0  0
 18 40  1  0  0  0  0
 19 41  1  0  0  0  0
 19 42  1  0  0  0  0
 19 43  1  0  0  0  0
 20 46  1  0  0  0  0
 20 47  1  0  0  0  0
 20 48  1  0  0  0  0
 21 44  1  0  0  0  0
 21 45  1  0  0  0  0
 21 49  1  0  0  0  0
 22 50  1  0  0  0  0
 22 51  1  0  0  0  0
 23 24  2  0  0  0  0
 23 52  1  0  0  0  0
 24 54  1  0  0  0  0
M  END
> <PUBCHEM_COMPOUND_CID>
102187096

> <PUBCHEM_CONFORMER_RMSD>
0.6

> <PUBCHEM_CONFORMER_DIVERSEORDER>
1

> <PUBCHEM_MMFF94_PARTIAL_CHARGES>
15
1 -0.56
12 0.34
14 0.45
15 0.42
2 -0.68
22 0.28
23 -0.29
24 -0.07
3 -0.57
4 -0.36
52 0.15
53 0.4
54 0.15
6 0.28
7 0.06

> <PUBCHEM_EFFECTIVE_ROTOR_COUNT>
2.2

> <PUBCHEM_PHARMACOPHORE_FEATURES>
10
1 1 acceptor
1 2 acceptor
1 2 donor
1 3 acceptor
1 4 acceptor
3 9 20 21 hydrophobe
5 1 6 11 15 18 rings
5 4 15 22 23 24 rings
6 5 6 7 8 12 14 rings
6 5 7 9 10 13 16 rings

> <PUBCHEM_HEAVY_ATOM_COUNT>
24

> <PUBCHEM_ATOM_DEF_STEREO_COUNT>
6

> <PUBCHEM_ATOM_UDEF_STEREO_COUNT>
0

> <PUBCHEM_BOND_DEF_STEREO_COUNT>
0

> <PUBCHEM_BOND_UDEF_STEREO_COUNT>
0

> <PUBCHEM_ISOTOPIC_ATOM_COUNT>
0

> <PUBCHEM_COMPONENT_COUNT>
1

> <PUBCHEM_CACTVS_TAUTO_COUNT>
2

> <PUBCHEM_CONFORMER_ID>
0617405800000001

> <PUBCHEM_MMFF94_ENERGY>
95.2639

> <PUBCHEM_FEATURE_SELFOVERLAP>
50.795

> <PUBCHEM_SHAPE_FINGERPRINT>
10764073 3 13485589546088540981
11221954 11 13540535672312148347
11578080 2 17823121483994076877
11582403 64 17049888548849745628
12202030 40 16662333033898902035
12422481 6 18121805854200346089
12506688 2 17749395909362795346
12539773 59 17320655489086114291
12553582 1 18338816596632873067
12633257 1 18339095881556038747
12714826 92 17894630348598911230
12716301 132 18054811497605849796
12788726 201 18338249205593577657
12824470 246 17675929815038342531
13004483 165 18263343854943488746
13083527 12 17982999339468770447
13140716 1 18197225964774837931
13538477 17 18189353285320606412
13544653 18 17895462709482886050
13583140 156 17895762927485730365
14022347 108 18123503606863195223
14081887 123 18342450418333037360
14178342 30 18337390444342199458
14223421 5 18342173345808548464
14787075 74 17325238579936004372
15375462 189 18187932849473199638
15475509 35 17389121215407873835
16752209 62 18338814324790190263
16945 1 18269014084006185975
17349148 13 17631167666396596479
17780758 139 18118383091625173106
1813 80 17386010508092303806
18981168 100 12822468967848693896
20600515 1 18342458149005352257
20905425 154 17911532204571017893
21033648 29 17417814993731008090
21421861 104 18192167098684557265
21475661 188 15838766681122304499
21731516 1 18261119598823819598
22112679 90 17914338123879744950
23184049 29 18339367490570649735
23227448 37 13686005549213321643
2334 1 17767136667174305911
23419403 2 17976788155439624109
23559900 14 18128832849786967548
2748010 2 17982757185176260823
34934 24 18055086607541598893
35225 105 17982426236144070864
392239 28 18192981833144140864
4058900 60 16895398884993271341
4340502 62 17975976454472332389
474 4 11599188511716556135
7097593 13 18409166614937593610
81228 2 18269282274258698789
8509985 295 18263945331481555483
90316 7 18342176678365612201

> <PUBCHEM_SHAPE_MULTIPOLES>
470.43
6.34
3.1
1.82
2.27
1.82
-0.2
-2.83
3.09
-0.82
0.33
0.21
-0.44
-0.76

> <PUBCHEM_SHAPE_SELFOVERLAP>
1008.202

> <PUBCHEM_SHAPE_VOLUME>
259.1

> <PUBCHEM_COORDINATE_TYPE>
2
5
10

$$$$
