6543478
  -OEChem-08282005473D

 38 41  0     1  0  0  0  0  0999 V2000
    0.2052    2.3238    0.2509 O   0  0  0  0  0  0  0  0  0  0  0  0
   -1.1724    0.5975   -1.2467 O   0  0  0  0  0  0  0  0  0  0  0  0
   -3.4258    1.1185   -1.1301 O   0  0  0  0  0  0  0  0  0  0  0  0
   -0.2618   -0.0492   -0.3275 C   0  0  2  0  0  0  0  0  0  0  0  0
    0.1191    0.9681    0.7443 C   0  0  1  0  0  0  0  0  0  0  0  0
    1.4268    1.7231    0.6721 C   0  0  1  0  0  0  0  0  0  0  0  0
    1.0112   -0.6059   -1.0067 C   0  0  1  0  0  0  0  0  0  0  0  0
   -1.1071   -1.2257    0.1486 C   0  0  1  0  0  0  0  0  0  0  0  0
    2.4154    1.4545   -0.4148 C   0  0  0  0  0  0  0  0  0  0  0  0
    1.8647    0.5674   -1.5318 C   0  0  0  0  0  0  0  0  0  0  0  0
    1.7819   -1.5547   -0.0261 C   0  0  1  0  0  0  0  0  0  0  0  0
   -0.4180   -2.0388    1.2273 C   0  0  0  0  0  0  0  0  0  0  0  0
    0.8692   -2.6201    0.6277 C   0  0  0  0  0  0  0  0  0  0  0  0
    1.9630    2.3309    1.9195 C   0  0  0  0  0  0  0  0  0  0  0  0
   -2.4061   -0.5342    0.3258 C   0  0  0  0  0  0  0  0  0  0  0  0
   -2.4519    0.4999   -0.7433 C   0  0  0  0  0  0  0  0  0  0  0  0
    2.9571   -2.2516   -0.7188 C   0  0  0  0  0  0  0  0  0  0  0  0
   -3.3705   -0.7035    1.2297 C   0  0  0  0  0  0  0  0  0  0  0  0
   -0.3647    0.8343    1.7017 H   0  0  0  0  0  0  0  0  0  0  0  0
    0.7045   -1.1883   -1.8873 H   0  0  0  0  0  0  0  0  0  0  0  0
   -1.2771   -1.9099   -0.7002 H   0  0  0  0  0  0  0  0  0  0  0  0
    3.2993    0.9692    0.0169 H   0  0  0  0  0  0  0  0  0  0  0  0
    2.7650    2.4012   -0.8439 H   0  0  0  0  0  0  0  0  0  0  0  0
    1.2483    1.1816   -2.2012 H   0  0  0  0  0  0  0  0  0  0  0  0
    2.6930    0.2005   -2.1481 H   0  0  0  0  0  0  0  0  0  0  0  0
    2.1979   -0.9636    0.7986 H   0  0  0  0  0  0  0  0  0  0  0  0
   -1.0646   -2.8572    1.5642 H   0  0  0  0  0  0  0  0  0  0  0  0
   -0.1849   -1.4343    2.1104 H   0  0  0  0  0  0  0  0  0  0  0  0
    1.4222   -3.1489    1.4137 H   0  0  0  0  0  0  0  0  0  0  0  0
    0.5992   -3.3744   -0.1233 H   0  0  0  0  0  0  0  0  0  0  0  0
    2.5059    3.2553    1.6962 H   0  0  0  0  0  0  0  0  0  0  0  0
    1.1703    2.5757    2.6351 H   0  0  0  0  0  0  0  0  0  0  0  0
    2.6543    1.6399    2.4129 H   0  0  0  0  0  0  0  0  0  0  0  0
    3.4556   -2.9453   -0.0331 H   0  0  0  0  0  0  0  0  0  0  0  0
    2.6202   -2.8225   -1.5904 H   0  0  0  0  0  0  0  0  0  0  0  0
    3.7094   -1.5306   -1.0519 H   0  0  0  0  0  0  0  0  0  0  0  0
   -3.2851   -1.4627    1.9993 H   0  0  0  0  0  0  0  0  0  0  0  0
   -4.2660   -0.0915    1.2258 H   0  0  0  0  0  0  0  0  0  0  0  0
  1  5  1  0  0  0  0
  1  6  1  0  0  0  0
  2  4  1  0  0  0  0
  2 16  1  0  0  0  0
  3 16  2  0  0  0  0
  4  5  1  0  0  0  0
  4  7  1  0  0  0  0
  4  8  1  0  0  0  0
  5  6  1  0  0  0  0
  5 19  1  0  0  0  0
  6  9  1  0  0  0  0
  6 14  1  0  0  0  0
  7 10  1  0  0  0  0
  7 11  1  0  0  0  0
  7 20  1  0  0  0  0
  8 12  1  0  0  0  0
  8 15  1  0  0  0  0
  8 21  1  0  0  0  0
  9 10  1  0  0  0  0
  9 22  1  0  0  0  0
  9 23  1  0  0  0  0
 10 24  1  0  0  0  0
 10 25  1  0  0  0  0
 11 13  1  0  0  0  0
 11 17  1  0  0  0  0
 11 26  1  0  0  0  0
 12 13  1  0  0  0  0
 12 27  1  0  0  0  0
 12 28  1  0  0  0  0
 13 29  1  0  0  0  0
 13 30  1  0  0  0  0
 14 31  1  0  0  0  0
 14 32  1  0  0  0  0
 14 33  1  0  0  0  0
 15 16  1  0  0  0  0
 15 18  2  0  0  0  0
 17 34  1  0  0  0  0
 17 35  1  0  0  0  0
 17 36  1  0  0  0  0
 18 37  1  0  0  0  0
 18 38  1  0  0  0  0
M  END
> <PUBCHEM_COMPOUND_CID>
6543478

> <PUBCHEM_CONFORMER_RMSD>
0.6

> <PUBCHEM_CONFORMER_DIVERSEORDER>
1

> <PUBCHEM_MMFF94_PARTIAL_CHARGES>
15
1 -0.3
14 0.09
15 -0.12
16 0.71
18 -0.3
19 0.1
2 -0.43
3 -0.57
37 0.15
38 0.15
4 0.38
5 -0.05
6 -0.04
8 0.14
9 0.09

> <PUBCHEM_EFFECTIVE_ROTOR_COUNT>
1.4

> <PUBCHEM_PHARMACOPHORE_FEATURES>
5
1 1 acceptor
1 3 acceptor
5 2 4 8 15 16 rings
6 4 7 8 11 12 13 rings
7 1 4 5 6 7 9 10 rings

> <PUBCHEM_HEAVY_ATOM_COUNT>
18

> <PUBCHEM_ATOM_DEF_STEREO_COUNT>
6

> <PUBCHEM_ATOM_UDEF_STEREO_COUNT>
0

> <PUBCHEM_BOND_DEF_STEREO_COUNT>
0

> <PUBCHEM_BOND_UDEF_STEREO_COUNT>
0

> <PUBCHEM_ISOTOPIC_ATOM_COUNT>
0

> <PUBCHEM_COMPONENT_COUNT>
1

> <PUBCHEM_CACTVS_TAUTO_COUNT>
1

> <PUBCHEM_CONFORMER_ID>
0063D87600000001

> <PUBCHEM_MMFF94_ENERGY>
48.8954

> <PUBCHEM_FEATURE_SELFOVERLAP>
25.491

> <PUBCHEM_SHAPE_FINGERPRINT>
104564 63 17692252936972892139
108231 29 18338242548573844282
10863032 1 17676498198283726590
12326174 3 17988929997909796468
12716301 132 17831588947835671752
13027679 85 18265620879036799466
13132413 78 17762055441247294740
13134695 92 18129651989996740236
13140716 1 18261112924608055235
13571099 52 17985534791739325432
14761567 1 18193867936030600974
14817 1 8246356682092084262
15001771 113 18048050574868746678
15219456 202 18333453144541949743
15490181 7 18196645418018404695
15852999 172 18049416412938678143
15881359 60 16617006938290774390
16945 1 18060138764465227652
19049666 15 18409452479302308913
19930374 2 17617645996429837282
21041028 32 18057621875228423521
21524375 3 17413298423286903784
22112679 90 17629780971374196504
22344851 341 17967814916248575842
2334 1 18261678155141767607
23419403 2 16817366089002068590
23493267 7 16805614693244397033
238 59 18266156487639923783
25 1 18200042861724853504
2748010 2 18259982686831787743
3286 77 18340782489390633019
4663303 62 18342730827820378034
495365 180 18264749018536062917
5255222 1 18192445266478628727
53812653 166 18195825165169450354
5895379 119 16557056737287016009
7364860 26 18343293760615061590
81228 2 17404301798331186506

> <PUBCHEM_SHAPE_MULTIPOLES>
352.82
4.27
2.82
1.47
2.67
0.56
0.15
-0.22
-0.37
-2.04
0.93
-0.13
-0.45
1.21

> <PUBCHEM_SHAPE_SELFOVERLAP>
767.602

> <PUBCHEM_SHAPE_VOLUME>
192

> <PUBCHEM_COORDINATE_TYPE>
2
5
10

$$$$
