101774198
  -OEChem-08282006013D

 56 59  0     1  0  0  0  0  0999 V2000
    1.4950   -0.0825    0.4657 O   0  0  0  0  0  0  0  0  0  0  0  0
    3.7537    1.8356    0.1051 O   0  0  0  0  0  0  0  0  0  0  0  0
   -1.7112   -3.5635   -0.1766 O   0  0  0  0  0  0  0  0  0  0  0  0
    5.7297    0.6947    0.7358 O   0  0  0  0  0  0  0  0  0  0  0  0
   -0.9268    0.4802    0.3941 C   0  0  2  0  0  0  0  0  0  0  0  0
    0.2225   -0.5604   -0.0420 C   0  0  2  0  0  0  0  0  0  0  0  0
   -2.2987   -0.0602   -0.1596 C   0  0  2  0  0  0  0  0  0  0  0  0
   -3.5176    0.9335   -0.1264 C   0  0  0  0  0  0  0  0  0  0  0  0
   -0.0851   -1.9503    0.6170 C   0  0  1  0  0  0  0  0  0  0  0  0
   -0.6552    1.9102   -0.1550 C   0  0  0  0  0  0  0  0  0  0  0  0
    0.4288   -0.6995   -1.5674 C   0  0  0  0  0  0  0  0  0  0  0  0
    2.4829   -0.0430   -0.5802 C   0  0  2  0  0  0  0  0  0  0  0  0
   -2.6250   -1.4465    0.4230 C   0  0  0  0  0  0  0  0  0  0  0  0
    1.9256   -0.8278   -1.7465 C   0  0  0  0  0  0  0  0  0  0  0  0
   -3.0839    2.3114   -0.6795 C   0  0  0  0  0  0  0  0  0  0  0  0
   -1.8342    2.8716   -0.0190 C   0  0  0  0  0  0  0  0  0  0  0  0
   -0.9057    0.6189    1.9490 C   0  0  0  0  0  0  0  0  0  0  0  0
   -1.4847   -2.4190    0.2184 C   0  0  0  0  0  0  0  0  0  0  0  0
    3.8123   -0.5289   -0.0424 C   0  0  0  0  0  0  0  0  0  0  0  0
   -4.1620    1.0996    1.2638 C   0  0  0  0  0  0  0  0  0  0  0  0
   -4.6406    0.4137   -1.0637 C   0  0  0  0  0  0  0  0  0  0  0  0
    2.8367    1.4006   -0.9133 C   0  0  0  0  0  0  0  0  0  0  0  0
    0.9316   -3.0654    0.3595 C   0  0  0  0  0  0  0  0  0  0  0  0
    4.3119    0.6769    0.7402 C   0  0  2  0  0  0  0  0  0  0  0  0
   -2.1231   -0.2285   -1.2332 H   0  0  0  0  0  0  0  0  0  0  0  0
   -0.0875   -1.8375    1.7073 H   0  0  0  0  0  0  0  0  0  0  0  0
   -0.3956    1.8836   -1.2159 H   0  0  0  0  0  0  0  0  0  0  0  0
    0.2046    2.3515    0.3628 H   0  0  0  0  0  0  0  0  0  0  0  0
    0.0967    0.1827   -2.1181 H   0  0  0  0  0  0  0  0  0  0  0  0
   -0.1100   -1.5449   -2.0072 H   0  0  0  0  0  0  0  0  0  0  0  0
   -3.4998   -1.8735   -0.0780 H   0  0  0  0  0  0  0  0  0  0  0  0
   -2.8502   -1.4132    1.4923 H   0  0  0  0  0  0  0  0  0  0  0  0
    2.2289   -1.8774   -1.6915 H   0  0  0  0  0  0  0  0  0  0  0  0
    2.2596   -0.4584   -2.7215 H   0  0  0  0  0  0  0  0  0  0  0  0
   -3.8998    3.0378   -0.5733 H   0  0  0  0  0  0  0  0  0  0  0  0
   -2.8917    2.2273   -1.7580 H   0  0  0  0  0  0  0  0  0  0  0  0
   -2.0296    3.1147    1.0296 H   0  0  0  0  0  0  0  0  0  0  0  0
   -1.5720    3.8214   -0.5012 H   0  0  0  0  0  0  0  0  0  0  0  0
   -1.3078   -0.2528    2.4689 H   0  0  0  0  0  0  0  0  0  0  0  0
   -1.4695    1.4801    2.3081 H   0  0  0  0  0  0  0  0  0  0  0  0
    0.1157    0.7704    2.3168 H   0  0  0  0  0  0  0  0  0  0  0  0
    4.4935   -0.7838   -0.8638 H   0  0  0  0  0  0  0  0  0  0  0  0
    3.7411   -1.4030    0.6109 H   0  0  0  0  0  0  0  0  0  0  0  0
   -5.4426    1.1549   -1.1646 H   0  0  0  0  0  0  0  0  0  0  0  0
   -4.2576    0.2075   -2.0694 H   0  0  0  0  0  0  0  0  0  0  0  0
   -5.1004   -0.5040   -0.6837 H   0  0  0  0  0  0  0  0  0  0  0  0
   -5.0345    1.7624    1.2074 H   0  0  0  0  0  0  0  0  0  0  0  0
   -4.5183    0.1445    1.6628 H   0  0  0  0  0  0  0  0  0  0  0  0
   -3.4913    1.5397    1.9998 H   0  0  0  0  0  0  0  0  0  0  0  0
    3.3610    1.4820   -1.8722 H   0  0  0  0  0  0  0  0  0  0  0  0
    1.9875    2.0827   -0.9237 H   0  0  0  0  0  0  0  0  0  0  0  0
    0.9368   -3.3870   -0.6862 H   0  0  0  0  0  0  0  0  0  0  0  0
    0.6797   -3.9511    0.9553 H   0  0  0  0  0  0  0  0  0  0  0  0
    1.9400   -2.7658    0.6496 H   0  0  0  0  0  0  0  0  0  0  0  0
    3.9637    0.6608    1.7780 H   0  0  0  0  0  0  0  0  0  0  0  0
    6.0440    0.4097   -0.1381 H   0  0  0  0  0  0  0  0  0  0  0  0
  1  6  1  0  0  0  0
  1 12  1  0  0  0  0
  2 22  1  0  0  0  0
  2 24  1  0  0  0  0
  3 18  2  0  0  0  0
  4 24  1  0  0  0  0
  4 56  1  0  0  0  0
  5  6  1  0  0  0  0
  5  7  1  0  0  0  0
  5 10  1  0  0  0  0
  5 17  1  0  0  0  0
  6  9  1  0  0  0  0
  6 11  1  0  0  0  0
  7  8  1  0  0  0  0
  7 13  1  0  0  0  0
  7 25  1  0  0  0  0
  8 15  1  0  0  0  0
  8 20  1  0  0  0  0
  8 21  1  0  0  0  0
  9 18  1  0  0  0  0
  9 23  1  0  0  0  0
  9 26  1  0  0  0  0
 10 16  1  0  0  0  0
 10 27  1  0  0  0  0
 10 28  1  0  0  0  0
 11 14  1  0  0  0  0
 11 29  1  0  0  0  0
 11 30  1  0  0  0  0
 12 14  1  0  0  0  0
 12 19  1  0  0  0  0
 12 22  1  0  0  0  0
 13 18  1  0  0  0  0
 13 31  1  0  0  0  0
 13 32  1  0  0  0  0
 14 33  1  0  0  0  0
 14 34  1  0  0  0  0
 15 16  1  0  0  0  0
 15 35  1  0  0  0  0
 15 36  1  0  0  0  0
 16 37  1  0  0  0  0
 16 38  1  0  0  0  0
 17 39  1  0  0  0  0
 17 40  1  0  0  0  0
 17 41  1  0  0  0  0
 19 24  1  0  0  0  0
 19 42  1  0  0  0  0
 19 43  1  0  0  0  0
 20 47  1  0  0  0  0
 20 48  1  0  0  0  0
 20 49  1  0  0  0  0
 21 44  1  0  0  0  0
 21 45  1  0  0  0  0
 21 46  1  0  0  0  0
 22 50  1  0  0  0  0
 22 51  1  0  0  0  0
 23 52  1  0  0  0  0
 23 53  1  0  0  0  0
 23 54  1  0  0  0  0
 24 55  1  0  0  0  0
M  END
> <PUBCHEM_COMPOUND_CID>
101774198

> <PUBCHEM_CONFORMER_RMSD>
0.6

> <PUBCHEM_CONFORMER_DIVERSEORDER>
1
2

> <PUBCHEM_MMFF94_PARTIAL_CHARGES>
12
1 -0.56
12 0.28
13 0.06
18 0.45
2 -0.56
22 0.28
24 0.56
3 -0.57
4 -0.68
56 0.4
6 0.28
9 0.06

> <PUBCHEM_EFFECTIVE_ROTOR_COUNT>
2.6

> <PUBCHEM_PHARMACOPHORE_FEATURES>
10
1 1 acceptor
1 2 acceptor
1 3 acceptor
1 4 acceptor
1 4 donor
3 8 20 21 hydrophobe
5 1 6 11 12 14 rings
5 2 12 19 22 24 rings
6 5 6 7 9 13 18 rings
6 5 7 8 10 15 16 rings

> <PUBCHEM_HEAVY_ATOM_COUNT>
24

> <PUBCHEM_ATOM_DEF_STEREO_COUNT>
6

> <PUBCHEM_ATOM_UDEF_STEREO_COUNT>
0

> <PUBCHEM_BOND_DEF_STEREO_COUNT>
0

> <PUBCHEM_BOND_UDEF_STEREO_COUNT>
0

> <PUBCHEM_ISOTOPIC_ATOM_COUNT>
0

> <PUBCHEM_COMPONENT_COUNT>
1

> <PUBCHEM_CACTVS_TAUTO_COUNT>
3

> <PUBCHEM_CONFORMER_ID>
0610F37600000001

> <PUBCHEM_MMFF94_ENERGY>
95.284

> <PUBCHEM_FEATURE_SELFOVERLAP>
50.827

> <PUBCHEM_SHAPE_FINGERPRINT>
10319926 262 18268974519495176776
10411042 1 17760928845609121339
10493431 412 18341906169026165729
10646746 165 18335987476058019180
10863032 1 18410857689332440878
10871710 139 17254015541215675100
10948715 1 18339077090704697519
10967382 1 18336831896524222765
11132069 177 18341901808980134680
11370993 70 18336541629612346214
11640471 11 17531546367795357244
11725454 13 17774141479703282122
12035758 1 18340495577148492715
12077114 3 18408042922675433540
121448 382 18412536618256042719
12173636 292 18409730630053473557
12403259 415 18265060136802420868
12403260 363 18337384933709131060
12403814 3 18334863844083864953
12592029 89 18261119521556554779
12596602 18 16732706077565942504
12633257 1 18409451414293208128
12788726 201 17827654852161055266
13140716 1 18264498458454633913
13224815 77 17917713474221727485
13583140 156 16877939438712285473
13965767 371 17391354005163757509
14223421 5 18117848698502704353
14787075 74 18202274827606516653
14790565 3 18339370682370479217
15042514 8 18262806288474062267
16945 1 18335992978042786125
17349148 13 18059856104472993856
17357779 13 17914323839351742719
17980427 23 18264770029279068948
18186145 218 18270413671792005303
19591789 44 18337115674062450555
19765921 60 18201436913846396305
19784866 34 18269557139882127737
20510252 161 18339931518455438963
20600515 1 18339938089740032381
20715895 44 18261385599345112749
21033648 29 18338221683849833600
21524375 3 18343863307896608484
22149856 69 17974309638311580281
22182313 1 18265074482341569747
23227448 37 18339922731042210468
2334 1 18048889785940481965
23402539 116 18339632425501605804
23419403 2 17343494802542602899
23557571 272 18127711493718296438
23558518 356 17699869335639141561
23559900 14 18343028783483441350
2748010 2 18193019070099412535
296302 2 17775006765020662205
350125 39 18048606923399145355
351380 180 18411413999488215588
352729 6 18335715969394297959
4340502 62 18411424977740751887
469060 322 18118426127049746939
5104073 3 18044947766573250121
58051976 378 18411416168393653837
5845 1 17338202831355776091
58807428 26 18334862696884595882
59755656 215 18339927013778628550
633830 44 17843693170809091925
69090 78 18335420157911763653
7097593 13 18187917357963922242
7364860 26 17832706772950978431
81228 2 18051442800026504826
84936 182 18053378799521558728
9709674 26 18343589533833365046
9862522 239 17895461540824169661
9981440 41 18334290929589948603

> <PUBCHEM_SHAPE_MULTIPOLES>
470.43
8.03
3.1
1.29
4.83
1.75
0.03
-4.31
-0.59
-1.23
-0.07
-0.06
-0.08
0.3

> <PUBCHEM_SHAPE_SELFOVERLAP>
999.264

> <PUBCHEM_SHAPE_VOLUME>
262

> <PUBCHEM_COORDINATE_TYPE>
2
5
10

$$$$
