332426
  -OEChem-08282013293D

 56 59  0     1  0  0  0  0  0999 V2000
   -1.0284   -1.7601    0.6034 O   0  0  0  0  0  0  0  0  0  0  0  0
    1.0358    1.4317    1.0185 O   0  0  0  0  0  0  0  0  0  0  0  0
   -5.5360   -1.9284   -1.5673 O   0  0  0  0  0  0  0  0  0  0  0  0
    5.4381    2.2419   -1.2237 O   0  0  0  0  0  0  0  0  0  0  0  0
   -5.8273    1.6841    1.5635 O   0  0  0  0  0  0  0  0  0  0  0  0
    5.8514   -2.1104    0.7318 O   0  0  0  0  0  0  0  0  0  0  0  0
   -7.0518   -0.0342   -0.2307 O   0  0  0  0  0  0  0  0  0  0  0  0
    7.0020    0.0560   -0.5545 O   0  0  0  0  0  0  0  0  0  0  0  0
   -0.6485    0.4223   -0.3031 C   0  0  1  0  0  0  0  0  0  0  0  0
    0.5996   -0.4050   -0.4531 C   0  0  1  0  0  0  0  0  0  0  0  0
   -1.4751   -0.3921    0.7011 C   0  0  1  0  0  0  0  0  0  0  0  0
    1.4776    0.0957    0.7016 C   0  0  1  0  0  0  0  0  0  0  0  0
    0.0939   -1.8208   -0.2879 C   0  0  0  0  0  0  0  0  0  0  0  0
   -0.1260    1.7360    0.2344 C   0  0  0  0  0  0  0  0  0  0  0  0
   -2.9617   -0.2972    0.4531 C   0  0  0  0  0  0  0  0  0  0  0  0
    2.9502    0.0854    0.3674 C   0  0  0  0  0  0  0  0  0  0  0  0
   -3.7236    0.6584    1.1275 C   0  0  0  0  0  0  0  0  0  0  0  0
    3.7366   -1.0174    0.7052 C   0  0  0  0  0  0  0  0  0  0  0  0
   -3.5767   -1.1642   -0.4515 C   0  0  0  0  0  0  0  0  0  0  0  0
    3.5282    1.1783   -0.2809 C   0  0  0  0  0  0  0  0  0  0  0  0
   -4.9498   -1.0759   -0.6811 C   0  0  0  0  0  0  0  0  0  0  0  0
    4.8882    1.1684   -0.5904 C   0  0  0  0  0  0  0  0  0  0  0  0
   -5.0966    0.7465    0.8980 C   0  0  0  0  0  0  0  0  0  0  0  0
    5.0966   -1.0272    0.3958 C   0  0  0  0  0  0  0  0  0  0  0  0
   -5.7097   -0.1206   -0.0063 C   0  0  0  0  0  0  0  0  0  0  0  0
    5.6725    0.0657   -0.2519 C   0  0  0  0  0  0  0  0  0  0  0  0
   -5.6041   -1.5036   -2.9271 C   0  0  0  0  0  0  0  0  0  0  0  0
    5.4393    2.2223   -2.6498 C   0  0  0  0  0  0  0  0  0  0  0  0
   -5.9649    2.9602    0.9416 C   0  0  0  0  0  0  0  0  0  0  0  0
    6.4702   -2.0958    2.0167 C   0  0  0  0  0  0  0  0  0  0  0  0
   -1.1813    0.5528   -1.2519 H   0  0  0  0  0  0  0  0  0  0  0  0
    1.0866   -0.2566   -1.4236 H   0  0  0  0  0  0  0  0  0  0  0  0
   -1.2684   -0.0874    1.7350 H   0  0  0  0  0  0  0  0  0  0  0  0
    1.3177   -0.4922    1.6146 H   0  0  0  0  0  0  0  0  0  0  0  0
   -0.2682   -2.2188   -1.2421 H   0  0  0  0  0  0  0  0  0  0  0  0
    0.8434   -2.5097    0.1115 H   0  0  0  0  0  0  0  0  0  0  0  0
    0.1940    2.3914   -0.5830 H   0  0  0  0  0  0  0  0  0  0  0  0
   -0.8517    2.2777    0.8475 H   0  0  0  0  0  0  0  0  0  0  0  0
   -3.2508    1.3375    1.8329 H   0  0  0  0  0  0  0  0  0  0  0  0
    3.2925   -1.8730    1.2083 H   0  0  0  0  0  0  0  0  0  0  0  0
   -2.9978   -1.9082   -0.9928 H   0  0  0  0  0  0  0  0  0  0  0  0
    2.9297    2.0417   -0.5600 H   0  0  0  0  0  0  0  0  0  0  0  0
   -7.3086   -0.7370   -0.8521 H   0  0  0  0  0  0  0  0  0  0  0  0
    7.3750   -0.8015   -0.2869 H   0  0  0  0  0  0  0  0  0  0  0  0
   -6.1536   -0.5608   -3.0134 H   0  0  0  0  0  0  0  0  0  0  0  0
   -6.1334   -2.2703   -3.4994 H   0  0  0  0  0  0  0  0  0  0  0  0
   -4.5975   -1.3900   -3.3417 H   0  0  0  0  0  0  0  0  0  0  0  0
    5.9173    3.1395   -3.0047 H   0  0  0  0  0  0  0  0  0  0  0  0
    4.4146    2.1904   -3.0334 H   0  0  0  0  0  0  0  0  0  0  0  0
    6.0073    1.3644   -3.0234 H   0  0  0  0  0  0  0  0  0  0  0  0
   -4.9857    3.4335    0.8178 H   0  0  0  0  0  0  0  0  0  0  0  0
   -6.5795    3.5922    1.5885 H   0  0  0  0  0  0  0  0  0  0  0  0
   -6.4617    2.8649   -0.0291 H   0  0  0  0  0  0  0  0  0  0  0  0
    5.7110   -2.0852    2.8052 H   0  0  0  0  0  0  0  0  0  0  0  0
    7.1309   -1.2293    2.1208 H   0  0  0  0  0  0  0  0  0  0  0  0
    7.0681   -3.0055    2.1193 H   0  0  0  0  0  0  0  0  0  0  0  0
  1 11  1  0  0  0  0
  1 13  1  0  0  0  0
  2 12  1  0  0  0  0
  2 14  1  0  0  0  0
  3 21  1  0  0  0  0
  3 27  1  0  0  0  0
  4 22  1  0  0  0  0
  4 28  1  0  0  0  0
  5 23  1  0  0  0  0
  5 29  1  0  0  0  0
  6 24  1  0  0  0  0
  6 30  1  0  0  0  0
  7 25  1  0  0  0  0
  7 43  1  0  0  0  0
  8 26  1  0  0  0  0
  8 44  1  0  0  0  0
  9 10  1  0  0  0  0
  9 11  1  0  0  0  0
  9 14  1  0  0  0  0
  9 31  1  0  0  0  0
 10 12  1  0  0  0  0
 10 13  1  0  0  0  0
 10 32  1  0  0  0  0
 11 15  1  0  0  0  0
 11 33  1  0  0  0  0
 12 16  1  0  0  0  0
 12 34  1  0  0  0  0
 13 35  1  0  0  0  0
 13 36  1  0  0  0  0
 14 37  1  0  0  0  0
 14 38  1  0  0  0  0
 15 17  2  0  0  0  0
 15 19  1  0  0  0  0
 16 18  2  0  0  0  0
 16 20  1  0  0  0  0
 17 23  1  0  0  0  0
 17 39  1  0  0  0  0
 18 24  1  0  0  0  0
 18 40  1  0  0  0  0
 19 21  2  0  0  0  0
 19 41  1  0  0  0  0
 20 22  2  0  0  0  0
 20 42  1  0  0  0  0
 21 25  1  0  0  0  0
 22 26  1  0  0  0  0
 23 25  2  0  0  0  0
 24 26  2  0  0  0  0
 27 45  1  0  0  0  0
 27 46  1  0  0  0  0
 27 47  1  0  0  0  0
 28 48  1  0  0  0  0
 28 49  1  0  0  0  0
 28 50  1  0  0  0  0
 29 51  1  0  0  0  0
 29 52  1  0  0  0  0
 29 53  1  0  0  0  0
 30 54  1  0  0  0  0
 30 55  1  0  0  0  0
 30 56  1  0  0  0  0
M  END
> <PUBCHEM_COMPOUND_CID>
332426

> <PUBCHEM_CONFORMER_RMSD>
0.8

> <PUBCHEM_CONFORMER_DIVERSEORDER>
1
35
16
15
4
23
12
41
43
2
3
18
26
25
33
5
8
42
34
40
6
29
30
44
10
32
31
27
13
9
28
21
7
14
11
39
19
20
38
17
37
24
22
36

> <PUBCHEM_MMFF94_PARTIAL_CHARGES>
34
1 -0.56
11 0.42
12 0.42
13 0.28
14 0.28
15 -0.14
16 -0.14
17 -0.15
18 -0.15
19 -0.15
2 -0.56
20 -0.15
21 0.08
22 0.08
23 0.08
24 0.08
25 0.08
26 0.08
27 0.28
28 0.28
29 0.28
3 -0.36
30 0.28
39 0.15
4 -0.36
40 0.15
41 0.15
42 0.15
43 0.45
44 0.45
5 -0.36
6 -0.36
7 -0.53
8 -0.53

> <PUBCHEM_EFFECTIVE_ROTOR_COUNT>
7.2

> <PUBCHEM_PHARMACOPHORE_FEATURES>
12
1 1 acceptor
1 2 acceptor
1 3 acceptor
1 4 acceptor
1 5 acceptor
1 6 acceptor
1 7 donor
1 8 donor
5 1 9 10 11 13 rings
5 2 9 10 12 14 rings
6 15 17 19 21 23 25 rings
6 16 18 20 22 24 26 rings

> <PUBCHEM_HEAVY_ATOM_COUNT>
30

> <PUBCHEM_ATOM_DEF_STEREO_COUNT>
3

> <PUBCHEM_ATOM_UDEF_STEREO_COUNT>
1

> <PUBCHEM_BOND_DEF_STEREO_COUNT>
0

> <PUBCHEM_BOND_UDEF_STEREO_COUNT>
0

> <PUBCHEM_ISOTOPIC_ATOM_COUNT>
0

> <PUBCHEM_COMPONENT_COUNT>
1

> <PUBCHEM_CACTVS_TAUTO_COUNT>
3

> <PUBCHEM_CONFORMER_ID>
0005128A00000001

> <PUBCHEM_MMFF94_ENERGY>
131.7702

> <PUBCHEM_FEATURE_SELFOVERLAP>
61.381

> <PUBCHEM_SHAPE_FINGERPRINT>
10299344 5 18411139125712435770
10554248 39 18333447638536652406
10638233 991 18335709385199468452
10906281 52 18338817653147192907
12166972 35 18130505335853982513
12236239 1 18410014325153547936
12616971 3 18335703818995108146
12788726 201 18129960987409344472
13533116 47 17967813817633695122
13782708 43 16056597707222794919
14068700 675 18060700602360334273
14251764 18 18411418401518126610
14790565 3 18410300219662558209
14856354 85 18201722877507082327
15183329 4 18411419513904015438
15250474 111 18341885307737629654
15276724 80 18040435490479172836
1577012 14 18412265034362005418
15840311 113 17531254950122590437
18927931 339 17632297921874849055
20567600 75 16371000780942598955
21033648 29 15791723135878099437
21267235 1 18130508630642218843
21709351 56 18201714077108796173
21814621 53 15357688669739411840
2303208 19 15864075359892223642
23081809 10 18411701001760346770
23522609 53 18266764461377689249
23559900 14 17894910775930363352
23569914 152 16306496685611437263
23569943 247 17169539714776444690
24771293 8 18272363231117056840
3004659 81 18410860945761631042
34797466 226 15574723494965873302
394071 54 17023191577999356068
397830 11 15865216743172492521
4015057 19 18187085108696667609
4073 2 17604721100370886402
4093350 32 15430050868223824974
5104073 3 18335421304921318178
59755656 215 16702311139097794925
59755656 520 18113336423595875627
6328613 192 18335145318622991873
9831232 110 17703238291608212622

> <PUBCHEM_SHAPE_MULTIPOLES>
570.43
20.19
2.42
1.76
0.78
0.72
-1.16
0.51
-2.15
0.54
-0.13
-0.51
0.01
-5.72

> <PUBCHEM_SHAPE_SELFOVERLAP>
1236.698

> <PUBCHEM_SHAPE_VOLUME>
316.9

> <PUBCHEM_COORDINATE_TYPE>
2
5
10

$$$$
