100929502
  -OEChem-08282013313D

 79 82  0     1  0  0  0  0  0999 V2000
    1.6185   -1.9428    0.4730 O   0  0  0  0  0  0  0  0  0  0  0  0
    3.2161   -1.3950   -1.1941 O   0  0  0  0  0  0  0  0  0  0  0  0
    3.2165    1.2672   -0.1111 O   0  0  0  0  0  0  0  0  0  0  0  0
   -2.0302   -3.8040    0.1749 O   0  0  0  0  0  0  0  0  0  0  0  0
    4.7182    0.5804    2.1290 O   0  0  0  0  0  0  0  0  0  0  0  0
    1.1211    2.2469    0.2054 O   0  0  0  0  0  0  0  0  0  0  0  0
    6.0884   -1.7003    1.0962 O   0  0  0  0  0  0  0  0  0  0  0  0
    1.4740   -4.6896   -0.4158 O   0  0  0  0  0  0  0  0  0  0  0  0
   -0.7460   -0.4385   -0.4365 O   0  0  0  0  0  0  0  0  0  0  0  0
   -3.1584   -1.7622    0.2239 O   0  0  0  0  0  0  0  0  0  0  0  0
    4.3739    3.8696   -0.2922 O   0  0  0  0  0  0  0  0  0  0  0  0
    2.5209    5.8827   -1.1817 O   0  0  0  0  0  0  0  0  0  0  0  0
   -2.3584   -6.4823   -0.3488 O   0  0  0  0  0  0  0  0  0  0  0  0
    0.2696    4.2918   -1.5885 O   0  0  0  0  0  0  0  0  0  0  0  0
   -3.8930    2.8121    2.1783 O   0  0  0  0  0  0  0  0  0  0  0  0
   -4.6819    4.2998   -0.0330 O   0  0  0  0  0  0  0  0  0  0  0  0
    2.8430    0.1289    0.6670 C   0  0  1  0  0  0  0  0  0  0  0  0
    0.4963   -2.4956   -0.2167 C   0  0  1  0  0  0  0  0  0  0  0  0
    2.2308   -0.9015   -0.2800 C   0  0  2  0  0  0  0  0  0  0  0  0
    4.0713   -0.4434    1.3766 C   0  0  1  0  0  0  0  0  0  0  0  0
    5.0613   -1.0302    0.3697 C   0  0  2  0  0  0  0  0  0  0  0  0
    0.3877   -3.9721    0.1642 C   0  0  1  0  0  0  0  0  0  0  0  0
   -0.7681   -1.7293    0.1724 C   0  0  2  0  0  0  0  0  0  0  0  0
    4.3429   -2.0136   -0.5646 C   0  0  2  0  0  0  0  0  0  0  0  0
   -0.9329   -4.5655   -0.3322 C   0  0  1  0  0  0  0  0  0  0  0  0
   -2.0268   -2.4588   -0.2971 C   0  0  1  0  0  0  0  0  0  0  0  0
    2.5294    2.4396    0.3244 C   0  0  2  0  0  0  0  0  0  0  0  0
    2.9949    3.6067   -0.5502 C   0  0  1  0  0  0  0  0  0  0  0  0
    2.1952    4.8694   -0.2341 C   0  0  2  0  0  0  0  0  0  0  0  0
    5.2566   -2.5147   -1.6795 C   0  0  0  0  0  0  0  0  0  0  0  0
   -1.1167   -6.0054    0.1366 C   0  0  0  0  0  0  0  0  0  0  0  0
    0.6931    4.5918   -0.2576 C   0  0  2  0  0  0  0  0  0  0  0  0
    0.3646    3.3884    0.6168 C   0  0  0  0  0  0  0  0  0  0  0  0
   -4.3354   -2.0710   -0.5062 C   0  0  0  0  0  0  0  0  0  0  0  0
   -5.5169   -1.2986    0.0704 C   0  0  0  0  0  0  0  0  0  0  0  0
   -5.2937    0.1939    0.0462 C   0  0  0  0  0  0  0  0  0  0  0  0
   -4.6916    0.8268    1.1337 C   0  0  0  0  0  0  0  0  0  0  0  0
   -5.6888    0.9403   -1.0640 C   0  0  0  0  0  0  0  0  0  0  0  0
   -4.4844    2.2060    1.1110 C   0  0  0  0  0  0  0  0  0  0  0  0
   -5.4817    2.3196   -1.0866 C   0  0  0  0  0  0  0  0  0  0  0  0
   -4.8794    2.9524    0.0008 C   0  0  0  0  0  0  0  0  0  0  0  0
    2.1121    0.3954    1.4428 H   0  0  0  0  0  0  0  0  0  0  0  0
    0.6695   -2.4290   -1.3007 H   0  0  0  0  0  0  0  0  0  0  0  0
    1.5077   -0.3774   -0.9094 H   0  0  0  0  0  0  0  0  0  0  0  0
    3.7686   -1.2199    2.0904 H   0  0  0  0  0  0  0  0  0  0  0  0
    5.5356   -0.2223   -0.2000 H   0  0  0  0  0  0  0  0  0  0  0  0
    0.4716   -4.0740    1.2531 H   0  0  0  0  0  0  0  0  0  0  0  0
   -0.7956   -1.5679    1.2566 H   0  0  0  0  0  0  0  0  0  0  0  0
    4.0002   -2.8921   -0.0027 H   0  0  0  0  0  0  0  0  0  0  0  0
   -0.9811   -4.5579   -1.4297 H   0  0  0  0  0  0  0  0  0  0  0  0
   -2.0714   -2.4507   -1.3953 H   0  0  0  0  0  0  0  0  0  0  0  0
    2.7925    2.6228    1.3752 H   0  0  0  0  0  0  0  0  0  0  0  0
    2.9148    3.3543   -1.6140 H   0  0  0  0  0  0  0  0  0  0  0  0
    2.4860    5.2508    0.7529 H   0  0  0  0  0  0  0  0  0  0  0  0
    6.1284   -3.0405   -1.2791 H   0  0  0  0  0  0  0  0  0  0  0  0
    5.6030   -1.6836   -2.3037 H   0  0  0  0  0  0  0  0  0  0  0  0
    4.7117   -3.1980   -2.3401 H   0  0  0  0  0  0  0  0  0  0  0  0
   -1.1434   -6.0591    1.2301 H   0  0  0  0  0  0  0  0  0  0  0  0
   -0.3199   -6.6548   -0.2384 H   0  0  0  0  0  0  0  0  0  0  0  0
    0.1377    5.4789    0.0653 H   0  0  0  0  0  0  0  0  0  0  0  0
    0.5664    3.5938    1.6743 H   0  0  0  0  0  0  0  0  0  0  0  0
   -0.6925    3.1197    0.5196 H   0  0  0  0  0  0  0  0  0  0  0  0
    4.0698    0.9303    2.7636 H   0  0  0  0  0  0  0  0  0  0  0  0
    5.6819   -2.4385    1.5814 H   0  0  0  0  0  0  0  0  0  0  0  0
    1.4050   -4.6108   -1.3826 H   0  0  0  0  0  0  0  0  0  0  0  0
   -0.7749   -0.5591   -1.4010 H   0  0  0  0  0  0  0  0  0  0  0  0
   -4.1972   -1.8009   -1.5604 H   0  0  0  0  0  0  0  0  0  0  0  0
   -4.5407   -3.1460   -0.4449 H   0  0  0  0  0  0  0  0  0  0  0  0
    4.4709    4.0718    0.6540 H   0  0  0  0  0  0  0  0  0  0  0  0
    1.9924    6.6689   -0.9622 H   0  0  0  0  0  0  0  0  0  0  0  0
   -2.4566   -7.3977   -0.0356 H   0  0  0  0  0  0  0  0  0  0  0  0
   -0.6918    4.1474   -1.5653 H   0  0  0  0  0  0  0  0  0  0  0  0
   -6.4317   -1.5484   -0.4805 H   0  0  0  0  0  0  0  0  0  0  0  0
   -5.6881   -1.6109    1.1087 H   0  0  0  0  0  0  0  0  0  0  0  0
   -4.3834    0.2447    1.9990 H   0  0  0  0  0  0  0  0  0  0  0  0
   -6.1570    0.4579   -1.9178 H   0  0  0  0  0  0  0  0  0  0  0  0
   -5.7938    2.8889   -1.9580 H   0  0  0  0  0  0  0  0  0  0  0  0
   -3.6855    2.1399    2.8500 H   0  0  0  0  0  0  0  0  0  0  0  0
   -5.0161    4.6477   -0.8776 H   0  0  0  0  0  0  0  0  0  0  0  0
  1 18  1  0  0  0  0
  1 19  1  0  0  0  0
  2 19  1  0  0  0  0
  2 24  1  0  0  0  0
  3 17  1  0  0  0  0
  3 27  1  0  0  0  0
  4 25  1  0  0  0  0
  4 26  1  0  0  0  0
  5 20  1  0  0  0  0
  5 63  1  0  0  0  0
  6 27  1  0  0  0  0
  6 33  1  0  0  0  0
  7 21  1  0  0  0  0
  7 64  1  0  0  0  0
  8 22  1  0  0  0  0
  8 65  1  0  0  0  0
  9 23  1  0  0  0  0
  9 66  1  0  0  0  0
 10 26  1  0  0  0  0
 10 34  1  0  0  0  0
 11 28  1  0  0  0  0
 11 69  1  0  0  0  0
 12 29  1  0  0  0  0
 12 70  1  0  0  0  0
 13 31  1  0  0  0  0
 13 71  1  0  0  0  0
 14 32  1  0  0  0  0
 14 72  1  0  0  0  0
 15 39  1  0  0  0  0
 15 78  1  0  0  0  0
 16 41  1  0  0  0  0
 16 79  1  0  0  0  0
 17 19  1  0  0  0  0
 17 20  1  0  0  0  0
 17 42  1  0  0  0  0
 18 22  1  0  0  0  0
 18 23  1  0  0  0  0
 18 43  1  0  0  0  0
 19 44  1  0  0  0  0
 20 21  1  0  0  0  0
 20 45  1  0  0  0  0
 21 24  1  0  0  0  0
 21 46  1  0  0  0  0
 22 25  1  0  0  0  0
 22 47  1  0  0  0  0
 23 26  1  0  0  0  0
 23 48  1  0  0  0  0
 24 30  1  0  0  0  0
 24 49  1  0  0  0  0
 25 31  1  0  0  0  0
 25 50  1  0  0  0  0
 26 51  1  0  0  0  0
 27 28  1  0  0  0  0
 27 52  1  0  0  0  0
 28 29  1  0  0  0  0
 28 53  1  0  0  0  0
 29 32  1  0  0  0  0
 29 54  1  0  0  0  0
 30 55  1  0  0  0  0
 30 56  1  0  0  0  0
 30 57  1  0  0  0  0
 31 58  1  0  0  0  0
 31 59  1  0  0  0  0
 32 33  1  0  0  0  0
 32 60  1  0  0  0  0
 33 61  1  0  0  0  0
 33 62  1  0  0  0  0
 34 35  1  0  0  0  0
 34 67  1  0  0  0  0
 34 68  1  0  0  0  0
 35 36  1  0  0  0  0
 35 73  1  0  0  0  0
 35 74  1  0  0  0  0
 36 37  2  0  0  0  0
 36 38  1  0  0  0  0
 37 39  1  0  0  0  0
 37 75  1  0  0  0  0
 38 40  2  0  0  0  0
 38 76  1  0  0  0  0
 39 41  2  0  0  0  0
 40 41  1  0  0  0  0
 40 77  1  0  0  0  0
M  END
> <PUBCHEM_COMPOUND_CID>
100929502

> <PUBCHEM_CONFORMER_RMSD>
1.2

> <PUBCHEM_CONFORMER_DIVERSEORDER>
1
23
76
150
121
224
144
204
70
61
179
205
178
116
235
231
182
213
143
184
77
220
111
133
250
174
211
191
234
245
240
181
146
135
58
233
13
209
161
172
140
183
4
212
21
84
62
163
241
176
74
221
127
227
66
36
108
145
237
175
141
99
88
14
129
239
46
41
50
155
187
113
154
72
247
166
236
40
91
160
117
251
230
110
157
78
109
139
253
238
29
246
203
190
69
170
165
152
201
222
126
188
217
134
193
206
101
65
243
223
128
9
103
125
199
215
33
226
19
244
156
159
130
252
104
138
119
210
200
105
207
60
169
202
82
95
173
249
137
94
164
197
171
32
28
96
136
79
48
73
34
122
219
64
149
87
214
89
45
198
242
228
162
208
71
107
229
131
37
81
189
63
194
55
97
52
17
30
218
51
158
54
47
118
92
167
75
93
56
216
27
90
185
180
15
83
102
53
22
112
232
192
59
148
106
168
38
98
248
100
85
20
114
195
80
186
7
196
25
120
225
147
8
11
177
115
86
42
67
132
31
35
124
10
151
142
3
39
49
68
6
44
43
18
153
12
16
26
57
254
5
123
2
24

> <PUBCHEM_MMFF94_PARTIAL_CHARGES>
53
1 -0.56
10 -0.56
11 -0.68
12 -0.68
13 -0.68
14 -0.68
15 -0.53
16 -0.53
17 0.28
18 0.28
19 0.56
2 -0.56
20 0.28
21 0.28
22 0.28
23 0.28
24 0.28
25 0.28
26 0.56
27 0.56
28 0.28
29 0.28
3 -0.56
31 0.28
32 0.28
33 0.28
34 0.28
35 0.14
36 -0.14
37 -0.15
38 -0.15
39 0.08
4 -0.56
40 -0.15
41 0.08
5 -0.68
6 -0.56
63 0.4
64 0.4
65 0.4
66 0.4
69 0.4
7 -0.68
70 0.4
71 0.4
72 0.4
75 0.15
76 0.15
77 0.15
78 0.45
79 0.45
8 -0.68
9 -0.68

> <PUBCHEM_EFFECTIVE_ROTOR_COUNT>
12.6

> <PUBCHEM_PHARMACOPHORE_FEATURES>
28
1 1 acceptor
1 10 acceptor
1 11 acceptor
1 11 donor
1 12 acceptor
1 12 donor
1 13 acceptor
1 13 donor
1 14 acceptor
1 14 donor
1 15 donor
1 16 donor
1 2 acceptor
1 3 acceptor
1 4 acceptor
1 5 acceptor
1 5 donor
1 6 acceptor
1 7 acceptor
1 7 donor
1 8 acceptor
1 8 donor
1 9 acceptor
1 9 donor
6 2 17 19 20 21 24 rings
6 36 37 38 39 40 41 rings
6 4 18 22 23 25 26 rings
6 6 27 28 29 32 33 rings

> <PUBCHEM_HEAVY_ATOM_COUNT>
41

> <PUBCHEM_ATOM_DEF_STEREO_COUNT>
14

> <PUBCHEM_ATOM_UDEF_STEREO_COUNT>
0

> <PUBCHEM_BOND_DEF_STEREO_COUNT>
0

> <PUBCHEM_BOND_UDEF_STEREO_COUNT>
0

> <PUBCHEM_ISOTOPIC_ATOM_COUNT>
0

> <PUBCHEM_COMPONENT_COUNT>
1

> <PUBCHEM_CACTVS_TAUTO_COUNT>
13

> <PUBCHEM_CONFORMER_ID>
06040FDE00000001

> <PUBCHEM_MMFF94_ENERGY>
119.834

> <PUBCHEM_FEATURE_SELFOVERLAP>
142.31

> <PUBCHEM_SHAPE_FINGERPRINT>
10190108 129 17836381358017346392
10439779 11 18195798790182019992
10864689 126 17906451022100186173
11513181 2 18129386071212462238
14117953 113 18267020544824010413
14466204 15 18338514145141338595
14790565 3 18410295808905205495
15001296 14 18263361550842082201
15320291 9 18196366142249513951
15320467 1 18122344846430836341
16112460 7 18409442605162160276
16628084 112 18195800989737986583
16993438 75 16030999564979119745
17627616 140 18193001632506148389
20764821 26 18410019818807687693
3493558 16 18122062271762675719
437795 96 18118960292138001245
550186 83 17895185546363469928
6371009 1 18339624733832506155
9961470 85 18197483233511261753

> <PUBCHEM_SHAPE_MULTIPOLES>
749.85
13.09
9.88
1.24
6.64
1.58
0.22
-4.07
0.54
-0.42
-2.14
-0.44
-0.63
-0.44

> <PUBCHEM_SHAPE_SELFOVERLAP>
1571.77

> <PUBCHEM_SHAPE_VOLUME>
417.2

> <PUBCHEM_COORDINATE_TYPE>
2
5
10

$$$$
