52951194
  -OEChem-08282006303D

 63 66  0     1  0  0  0  0  0999 V2000
    1.4026    0.1032    0.3911 O   0  0  0  0  0  0  0  0  0  0  0  0
   -2.3758   -1.9156    0.5739 O   0  0  0  0  0  0  0  0  0  0  0  0
    0.2200    4.0587    1.5356 O   0  0  0  0  0  0  0  0  0  0  0  0
    3.5170   -2.7870    0.0942 O   0  0  0  0  0  0  0  0  0  0  0  0
   -2.1490    3.1659    0.8889 O   0  0  0  0  0  0  0  0  0  0  0  0
    5.5222   -1.5567    0.1582 O   0  0  0  0  0  0  0  0  0  0  0  0
   -3.7305   -3.6235   -0.1907 O   0  0  0  0  0  0  0  0  0  0  0  0
   -0.5259    0.7314   -1.0634 C   0  0  2  0  0  0  0  0  0  0  0  0
    1.0074    1.0278   -0.6555 C   0  0  1  0  0  0  0  0  0  0  0  0
   -1.4375    0.9369    0.2047 C   0  0  2  0  0  0  0  0  0  0  0  0
    1.1306    2.4901   -0.0754 C   0  0  1  0  0  0  0  0  0  0  0  0
   -2.9287    0.4453    0.1206 C   0  0  0  0  0  0  0  0  0  0  0  0
   -0.7022   -0.7420   -1.5397 C   0  0  0  0  0  0  0  0  0  0  0  0
    2.0055    0.7826   -1.8069 C   0  0  0  0  0  0  0  0  0  0  0  0
    2.6007   -0.5913    0.0381 C   0  0  1  0  0  0  0  0  0  0  0  0
   -2.9446   -1.0250   -0.3907 C   0  0  1  0  0  0  0  0  0  0  0  0
    3.2041    0.1236   -1.1607 C   0  0  0  0  0  0  0  0  0  0  0  0
    0.1890    2.7000    1.1236 C   0  0  2  0  0  0  0  0  0  0  0  0
   -1.2368    2.3571    0.7384 C   0  0  0  0  0  0  0  0  0  0  0  0
   -2.1541   -1.2058   -1.6847 C   0  0  0  0  0  0  0  0  0  0  0  0
   -0.9176    1.6747   -2.2319 C   0  0  0  0  0  0  0  0  0  0  0  0
    3.5447   -0.7090    1.2227 C   0  0  0  0  0  0  0  0  0  0  0  0
    2.5511    2.9075    0.3407 C   0  0  0  0  0  0  0  0  0  0  0  0
   -3.6994    1.3321   -0.8964 C   0  0  0  0  0  0  0  0  0  0  0  0
   -3.7277    0.5159    1.4409 C   0  0  0  0  0  0  0  0  0  0  0  0
    2.3224   -2.0645   -0.2353 C   0  0  0  0  0  0  0  0  0  0  0  0
    4.3631   -1.9432    0.8862 C   0  0  1  0  0  0  0  0  0  0  0  0
   -2.8668   -3.1877    0.5583 C   0  0  0  0  0  0  0  0  0  0  0  0
   -2.1837   -4.0018    1.6152 C   0  0  0  0  0  0  0  0  0  0  0  0
   -1.0094    0.3098    1.0032 H   0  0  0  0  0  0  0  0  0  0  0  0
    0.8401    3.1976   -0.8643 H   0  0  0  0  0  0  0  0  0  0  0  0
   -0.2094   -0.9015   -2.5046 H   0  0  0  0  0  0  0  0  0  0  0  0
   -0.2181   -1.4168   -0.8292 H   0  0  0  0  0  0  0  0  0  0  0  0
    1.6095    0.0932   -2.5566 H   0  0  0  0  0  0  0  0  0  0  0  0
    2.2738    1.6961   -2.3476 H   0  0  0  0  0  0  0  0  0  0  0  0
    3.7283   -0.5438   -1.8530 H   0  0  0  0  0  0  0  0  0  0  0  0
    3.9309    0.8789   -0.8484 H   0  0  0  0  0  0  0  0  0  0  0  0
   -3.9913   -1.3017   -0.5788 H   0  0  0  0  0  0  0  0  0  0  0  0
    0.4828    2.0795    1.9777 H   0  0  0  0  0  0  0  0  0  0  0  0
   -2.6408   -0.6988   -2.5220 H   0  0  0  0  0  0  0  0  0  0  0  0
   -2.1322   -2.2674   -1.9620 H   0  0  0  0  0  0  0  0  0  0  0  0
   -1.2567    2.6551   -1.8847 H   0  0  0  0  0  0  0  0  0  0  0  0
   -1.6869    1.2598   -2.8842 H   0  0  0  0  0  0  0  0  0  0  0  0
   -0.0707    1.8575   -2.9013 H   0  0  0  0  0  0  0  0  0  0  0  0
    2.9606   -0.8810    2.1360 H   0  0  0  0  0  0  0  0  0  0  0  0
    4.1547    0.1842    1.3875 H   0  0  0  0  0  0  0  0  0  0  0  0
    3.2315    2.9155   -0.5145 H   0  0  0  0  0  0  0  0  0  0  0  0
    2.5642    3.9276    0.7398 H   0  0  0  0  0  0  0  0  0  0  0  0
    2.9546    2.2498    1.1149 H   0  0  0  0  0  0  0  0  0  0  0  0
   -4.7161    0.0539    1.3361 H   0  0  0  0  0  0  0  0  0  0  0  0
   -3.8828    1.5476    1.7708 H   0  0  0  0  0  0  0  0  0  0  0  0
   -3.1991   -0.0086    2.2442 H   0  0  0  0  0  0  0  0  0  0  0  0
   -4.7701    1.0895   -0.8514 H   0  0  0  0  0  0  0  0  0  0  0  0
   -3.4320    1.1748   -1.9368 H   0  0  0  0  0  0  0  0  0  0  0  0
   -3.6307    2.4012   -0.6903 H   0  0  0  0  0  0  0  0  0  0  0  0
    2.0527   -2.2726   -1.2754 H   0  0  0  0  0  0  0  0  0  0  0  0
    1.5154   -2.4472    0.4004 H   0  0  0  0  0  0  0  0  0  0  0  0
    4.6768   -2.4752    1.7901 H   0  0  0  0  0  0  0  0  0  0  0  0
   -0.3101    4.1303    2.3479 H   0  0  0  0  0  0  0  0  0  0  0  0
    6.1723   -2.2729    0.2553 H   0  0  0  0  0  0  0  0  0  0  0  0
   -1.1086   -4.0337    1.4204 H   0  0  0  0  0  0  0  0  0  0  0  0
   -2.5721   -5.0240    1.5934 H   0  0  0  0  0  0  0  0  0  0  0  0
   -2.3843   -3.5731    2.6002 H   0  0  0  0  0  0  0  0  0  0  0  0
  1  9  1  0  0  0  0
  1 15  1  0  0  0  0
  2 16  1  0  0  0  0
  2 28  1  0  0  0  0
  3 18  1  0  0  0  0
  3 59  1  0  0  0  0
  4 26  1  0  0  0  0
  4 27  1  0  0  0  0
  5 19  2  0  0  0  0
  6 27  1  0  0  0  0
  6 60  1  0  0  0  0
  7 28  2  0  0  0  0
  8  9  1  0  0  0  0
  8 10  1  0  0  0  0
  8 13  1  0  0  0  0
  8 21  1  0  0  0  0
  9 11  1  0  0  0  0
  9 14  1  0  0  0  0
 10 12  1  0  0  0  0
 10 19  1  0  0  0  0
 10 30  1  0  0  0  0
 11 18  1  0  0  0  0
 11 23  1  0  0  0  0
 11 31  1  0  0  0  0
 12 16  1  0  0  0  0
 12 24  1  0  0  0  0
 12 25  1  0  0  0  0
 13 20  1  0  0  0  0
 13 32  1  0  0  0  0
 13 33  1  0  0  0  0
 14 17  1  0  0  0  0
 14 34  1  0  0  0  0
 14 35  1  0  0  0  0
 15 17  1  0  0  0  0
 15 22  1  0  0  0  0
 15 26  1  0  0  0  0
 16 20  1  0  0  0  0
 16 38  1  0  0  0  0
 17 36  1  0  0  0  0
 17 37  1  0  0  0  0
 18 19  1  0  0  0  0
 18 39  1  0  0  0  0
 20 40  1  0  0  0  0
 20 41  1  0  0  0  0
 21 42  1  0  0  0  0
 21 43  1  0  0  0  0
 21 44  1  0  0  0  0
 22 27  1  0  0  0  0
 22 45  1  0  0  0  0
 22 46  1  0  0  0  0
 23 47  1  0  0  0  0
 23 48  1  0  0  0  0
 23 49  1  0  0  0  0
 24 53  1  0  0  0  0
 24 54  1  0  0  0  0
 24 55  1  0  0  0  0
 25 50  1  0  0  0  0
 25 51  1  0  0  0  0
 25 52  1  0  0  0  0
 26 56  1  0  0  0  0
 26 57  1  0  0  0  0
 27 58  1  0  0  0  0
 28 29  1  0  0  0  0
 29 61  1  0  0  0  0
 29 62  1  0  0  0  0
 29 63  1  0  0  0  0
M  END
> <PUBCHEM_COMPOUND_CID>
52951194

> <PUBCHEM_CONFORMER_RMSD>
0.8

> <PUBCHEM_CONFORMER_DIVERSEORDER>
1

> <PUBCHEM_MMFF94_PARTIAL_CHARGES>
19
1 -0.56
10 0.06
15 0.28
16 0.28
18 0.34
19 0.45
2 -0.43
26 0.28
27 0.56
28 0.66
29 0.06
3 -0.68
4 -0.56
5 -0.57
59 0.4
6 -0.68
60 0.4
7 -0.57
9 0.28

> <PUBCHEM_EFFECTIVE_ROTOR_COUNT>
4.6

> <PUBCHEM_PHARMACOPHORE_FEATURES>
13
1 1 acceptor
1 3 acceptor
1 3 donor
1 4 acceptor
1 5 acceptor
1 6 acceptor
1 6 donor
1 7 acceptor
3 12 24 25 hydrophobe
5 1 9 14 15 17 rings
5 4 15 22 26 27 rings
6 8 10 12 13 16 20 rings
6 8 9 10 11 18 19 rings

> <PUBCHEM_HEAVY_ATOM_COUNT>
29

> <PUBCHEM_ATOM_DEF_STEREO_COUNT>
8

> <PUBCHEM_ATOM_UDEF_STEREO_COUNT>
0

> <PUBCHEM_BOND_DEF_STEREO_COUNT>
0

> <PUBCHEM_BOND_UDEF_STEREO_COUNT>
0

> <PUBCHEM_ISOTOPIC_ATOM_COUNT>
0

> <PUBCHEM_COMPONENT_COUNT>
1

> <PUBCHEM_CACTVS_TAUTO_COUNT>
5

> <PUBCHEM_CONFORMER_ID>
0327F89A00000001

> <PUBCHEM_MMFF94_ENERGY>
108.7177

> <PUBCHEM_FEATURE_SELFOVERLAP>
66.064

> <PUBCHEM_SHAPE_FINGERPRINT>
10366900 7 17988066786982823602
10906281 52 17988089876558676093
1100329 8 18410573955561505483
114674 6 17400086760334769987
11578080 2 18187629298375975892
12156800 1 15158508762539598986
12506688 2 18264208187010412822
12553582 1 18271255927700557116
12633257 1 18341062856191811507
12714826 92 17896031040713746916
12788726 201 18200325307322228497
13140716 1 18343022224266520425
13533116 47 18122625226544684667
13583140 156 18197212762082222053
13631057 29 18263655124604236470
14022347 108 17913804701916602749
14223421 5 18122623022782642197
14856354 85 18270687463837543574
14863182 85 17036420021146219071
15422964 175 17757266355744912111
16728300 4 17680429940628073251
16945 1 18342467997618751597
17974551 9 18060136552862987257
1813 80 17606696729539736310
19315092 285 17412185739322095995
20600515 1 18265060145492400869
20775530 9 18115306816271579499
21421861 104 18052826028962356283
23559900 14 18045493368799860293
25222932 49 16832633250674045943
3178227 256 18267034873641960297
35225 105 17906776589326805987
3737641 26 17829069919056826906
392239 28 17478050917888223146
5486654 36 18334863830798348379
58807428 26 17693953894720854617
7097593 13 18340774844126955603
81228 2 17985834718006471844

> <PUBCHEM_SHAPE_MULTIPOLES>
555.72
7.41
4.74
1.67
4.3
1.13
0.42
5.91
-1.19
-1.63
-2.35
-0.42
-0.43
0

> <PUBCHEM_SHAPE_SELFOVERLAP>
1181.893

> <PUBCHEM_SHAPE_VOLUME>
306.6

> <PUBCHEM_COORDINATE_TYPE>
2
5
10

$$$$
