5363700
  -OEChem-08282005393D

 35 35  0     1  0  0  0  0  0999 V2000
   -4.3347   -0.7425   -0.2501 O   0  0  0  0  0  0  0  0  0  0  0  0
    3.9623    0.9777    0.5229 O   0  0  0  0  0  0  0  0  0  0  0  0
   -1.1207    1.2615    0.0100 C   0  0  0  0  0  0  0  0  0  0  0  0
   -2.6103    0.8750    0.2075 C   0  0  0  0  0  0  0  0  0  0  0  0
   -2.9612   -0.4383   -0.4731 C   0  0  1  0  0  0  0  0  0  0  0  0
   -0.1851    0.0493    0.2289 C   0  0  0  0  0  0  0  0  0  0  0  0
   -2.1154   -1.5638    0.1072 C   0  0  0  0  0  0  0  0  0  0  0  0
   -0.6519   -1.2230    0.2972 C   0  0  0  0  0  0  0  0  0  0  0  0
   -0.9311    1.8096   -1.4229 C   0  0  0  0  0  0  0  0  0  0  0  0
   -0.8390    2.4041    1.0158 C   0  0  0  0  0  0  0  0  0  0  0  0
    1.2314    0.3600    0.3312 C   0  0  0  0  0  0  0  0  0  0  0  0
    0.1807   -2.4565    0.5600 C   0  0  0  0  0  0  0  0  0  0  0  0
    2.1668   -0.3875   -0.2457 C   0  0  0  0  0  0  0  0  0  0  0  0
    3.6024   -0.0162   -0.1040 C   0  0  0  0  0  0  0  0  0  0  0  0
    4.6058   -0.9093   -0.7850 C   0  0  0  0  0  0  0  0  0  0  0  0
   -3.2739    1.6686   -0.1612 H   0  0  0  0  0  0  0  0  0  0  0  0
   -2.8404    0.7903    1.2799 H   0  0  0  0  0  0  0  0  0  0  0  0
   -2.8154   -0.3685   -1.5560 H   0  0  0  0  0  0  0  0  0  0  0  0
   -2.2110   -2.4334   -0.5565 H   0  0  0  0  0  0  0  0  0  0  0  0
   -2.5261   -1.8839    1.0746 H   0  0  0  0  0  0  0  0  0  0  0  0
   -1.0851    1.0334   -2.1803 H   0  0  0  0  0  0  0  0  0  0  0  0
   -1.6345    2.6241   -1.6308 H   0  0  0  0  0  0  0  0  0  0  0  0
    0.0791    2.2098   -1.5687 H   0  0  0  0  0  0  0  0  0  0  0  0
   -1.6120    3.1796    0.9523 H   0  0  0  0  0  0  0  0  0  0  0  0
   -0.8262    2.0334    2.0474 H   0  0  0  0  0  0  0  0  0  0  0  0
    0.1158    2.9041    0.8209 H   0  0  0  0  0  0  0  0  0  0  0  0
    1.5104    1.2144    0.9376 H   0  0  0  0  0  0  0  0  0  0  0  0
    0.4392   -2.9556   -0.3790 H   0  0  0  0  0  0  0  0  0  0  0  0
   -0.3914   -3.1704    1.1653 H   0  0  0  0  0  0  0  0  0  0  0  0
    1.0855   -2.2590    1.1403 H   0  0  0  0  0  0  0  0  0  0  0  0
   -4.4880   -0.7686    0.7098 H   0  0  0  0  0  0  0  0  0  0  0  0
    1.9507   -1.2303   -0.8910 H   0  0  0  0  0  0  0  0  0  0  0  0
    5.4811   -1.0238   -0.1392 H   0  0  0  0  0  0  0  0  0  0  0  0
    4.1910   -1.9050   -0.9645 H   0  0  0  0  0  0  0  0  0  0  0  0
    4.9016   -0.4614   -1.7369 H   0  0  0  0  0  0  0  0  0  0  0  0
  1  5  1  0  0  0  0
  1 31  1  0  0  0  0
  2 14  2  0  0  0  0
  3  4  1  0  0  0  0
  3  6  1  0  0  0  0
  3  9  1  0  0  0  0
  3 10  1  0  0  0  0
  4  5  1  0  0  0  0
  4 16  1  0  0  0  0
  4 17  1  0  0  0  0
  5  7  1  0  0  0  0
  5 18  1  0  0  0  0
  6  8  2  0  0  0  0
  6 11  1  0  0  0  0
  7  8  1  0  0  0  0
  7 19  1  0  0  0  0
  7 20  1  0  0  0  0
  8 12  1  0  0  0  0
  9 21  1  0  0  0  0
  9 22  1  0  0  0  0
  9 23  1  0  0  0  0
 10 24  1  0  0  0  0
 10 25  1  0  0  0  0
 10 26  1  0  0  0  0
 11 13  2  0  0  0  0
 11 27  1  0  0  0  0
 12 28  1  0  0  0  0
 12 29  1  0  0  0  0
 12 30  1  0  0  0  0
 13 14  1  0  0  0  0
 13 32  1  0  0  0  0
 14 15  1  0  0  0  0
 15 33  1  0  0  0  0
 15 34  1  0  0  0  0
 15 35  1  0  0  0  0
M  END
> <PUBCHEM_COMPOUND_CID>
5363700

> <PUBCHEM_CONFORMER_RMSD>
0.6

> <PUBCHEM_CONFORMER_DIVERSEORDER>
2
13
11
12
5
7
8
6
1
10
4
3
9

> <PUBCHEM_MMFF94_PARTIAL_CHARGES>
15
1 -0.68
11 -0.15
12 0.14
13 -0.14
14 0.49
15 0.06
2 -0.57
27 0.15
3 0.14
31 0.4
32 0.15
5 0.28
6 -0.14
7 0.14
8 -0.28

> <PUBCHEM_EFFECTIVE_ROTOR_COUNT>
2.8

> <PUBCHEM_PHARMACOPHORE_FEATURES>
5
1 1 acceptor
1 1 donor
1 2 acceptor
3 3 9 10 hydrophobe
6 3 4 5 6 7 8 rings

> <PUBCHEM_HEAVY_ATOM_COUNT>
15

> <PUBCHEM_ATOM_DEF_STEREO_COUNT>
0

> <PUBCHEM_ATOM_UDEF_STEREO_COUNT>
1

> <PUBCHEM_BOND_DEF_STEREO_COUNT>
1

> <PUBCHEM_BOND_UDEF_STEREO_COUNT>
0

> <PUBCHEM_ISOTOPIC_ATOM_COUNT>
0

> <PUBCHEM_COMPONENT_COUNT>
1

> <PUBCHEM_CACTVS_TAUTO_COUNT>
2

> <PUBCHEM_CONFORMER_ID>
0051D7F400000002

> <PUBCHEM_MMFF94_ENERGY>
38.9747

> <PUBCHEM_FEATURE_SELFOVERLAP>
25.371

> <PUBCHEM_SHAPE_FINGERPRINT>
108231 29 18341893051689524545
11132069 177 18410851087972851840
11680986 33 17904761429531768075
12032990 46 18339646740881083499
13024252 1 13840272485188080585
14115302 16 18187370985956529022
14614273 12 18115864114173964165
14911166 2 18336818780205940319
14993402 34 17967252013529011382
15775835 57 18115592530570219960
16945 1 18260257547621983993
18186145 218 18340485565432239824
187816 3 18408322202707773023
200 152 17346599660234111454
20510252 161 18342175553131906896
20645476 183 17312822714173178402
21029758 11 18271519901155086921
21029758 27 18041569138859762405
21501502 16 18120935010061446219
21637258 2 16128359498615939231
23402539 116 18412819183779841798
23493267 7 17458058249184584793
23557571 272 18343590633534903244
23559900 14 18341891905560860776
2748010 2 17903062667040101979
3286 77 17275100660757146962
353137 74 18334571300644031971
43471831 8 18261388897515947106
69090 78 18272929440470211262
81228 2 18263088854482807210
9709674 26 18271534121918729526

> <PUBCHEM_SHAPE_MULTIPOLES>
296.95
6.74
2.25
0.94
6.02
0.03
-0.13
-1.14
-1.23
-0.93
0.35
-0.02
0.35
0.21

> <PUBCHEM_SHAPE_SELFOVERLAP>
596.781

> <PUBCHEM_SHAPE_VOLUME>
175

> <PUBCHEM_COORDINATE_TYPE>
2
5
10

$$$$
