57325810
  -OEChem-08282013323D

 82 85  0     1  0  0  0  0  0999 V2000
    1.8050   -1.8804    0.4686 O   0  0  0  0  0  0  0  0  0  0  0  0
    3.4080   -1.2663   -1.1699 O   0  0  0  0  0  0  0  0  0  0  0  0
    3.2274    1.4081   -0.1330 O   0  0  0  0  0  0  0  0  0  0  0  0
   -1.7211   -3.9564    0.1176 O   0  0  0  0  0  0  0  0  0  0  0  0
    4.7117    0.8457    2.1529 O   0  0  0  0  0  0  0  0  0  0  0  0
    1.0716    2.2683    0.1178 O   0  0  0  0  0  0  0  0  0  0  0  0
    6.2368   -1.3669    1.1916 O   0  0  0  0  0  0  0  0  0  0  0  0
    1.8420   -4.6445   -0.3760 O   0  0  0  0  0  0  0  0  0  0  0  0
   -0.6202   -0.5315   -0.5213 O   0  0  0  0  0  0  0  0  0  0  0  0
   -2.9669   -1.9835    0.1053 O   0  0  0  0  0  0  0  0  0  0  0  0
    4.2356    4.0705   -0.3317 O   0  0  0  0  0  0  0  0  0  0  0  0
    2.2908    5.9575   -1.2985 O   0  0  0  0  0  0  0  0  0  0  0  0
   -1.8802   -6.6573   -0.3675 O   0  0  0  0  0  0  0  0  0  0  0  0
    0.1464    4.2314   -1.7303 O   0  0  0  0  0  0  0  0  0  0  0  0
   -4.0133    2.5701    1.9634 O   0  0  0  0  0  0  0  0  0  0  0  0
   -4.8335    3.9741   -0.2909 O   0  0  0  0  0  0  0  0  0  0  0  0
    2.9020    0.2622    0.6556 C   0  0  1  0  0  0  0  0  0  0  0  0
    0.7339   -2.5087   -0.2374 C   0  0  1  0  0  0  0  0  0  0  0  0
    2.3739   -0.8170   -0.2876 C   0  0  2  0  0  0  0  0  0  0  0  0
    4.1439   -0.2259    1.4034 C   0  0  1  0  0  0  0  0  0  0  0  0
    5.1904   -0.7696    0.4299 C   0  0  2  0  0  0  0  0  0  0  0  0
    0.7022   -3.9829    0.1661 C   0  0  1  0  0  0  0  0  0  0  0  0
   -0.5819   -1.8117    0.1089 C   0  0  2  0  0  0  0  0  0  0  0  0
    4.5532   -1.8079   -0.5038 C   0  0  2  0  0  0  0  0  0  0  0  0
   -0.5693   -4.6602   -0.3506 C   0  0  1  0  0  0  0  0  0  0  0  0
   -1.7844   -2.6208   -0.3772 C   0  0  1  0  0  0  0  0  0  0  0  0
    2.4629    2.5450    0.2663 C   0  0  2  0  0  0  0  0  0  0  0  0
    2.8808    3.7234   -0.6172 C   0  0  1  0  0  0  0  0  0  0  0  0
    2.0017    4.9420   -0.3415 C   0  0  2  0  0  0  0  0  0  0  0  0
    5.5214   -2.2722   -1.5884 C   0  0  0  0  0  0  0  0  0  0  0  0
   -0.6804   -6.1008    0.1384 C   0  0  0  0  0  0  0  0  0  0  0  0
    0.5193    4.5766   -0.3952 C   0  0  2  0  0  0  0  0  0  0  0  0
    0.2402    3.3699    0.4919 C   0  0  0  0  0  0  0  0  0  0  0  0
   -4.1058   -2.3722   -0.6466 C   0  0  0  0  0  0  0  0  0  0  0  0
   -5.3439   -1.6613   -0.1110 C   0  0  0  0  0  0  0  0  0  0  0  0
   -5.2074   -0.1588   -0.1556 C   0  0  0  0  0  0  0  0  0  0  0  0
   -4.6696    0.5253    0.9347 C   0  0  0  0  0  0  0  0  0  0  0  0
   -5.6181    0.5456   -1.2873 C   0  0  0  0  0  0  0  0  0  0  0  0
   -4.5424    1.9137    0.8931 C   0  0  0  0  0  0  0  0  0  0  0  0
   -5.4911    1.9341   -1.3287 C   0  0  0  0  0  0  0  0  0  0  0  0
   -4.9531    2.6182   -0.2386 C   0  0  0  0  0  0  0  0  0  0  0  0
   -3.6186    1.7755    3.0801 C   0  0  0  0  0  0  0  0  0  0  0  0
    2.1382    0.4977    1.4095 H   0  0  0  0  0  0  0  0  0  0  0  0
    0.9291   -2.4492   -1.3180 H   0  0  0  0  0  0  0  0  0  0  0  0
    1.6370   -0.3461   -0.9425 H   0  0  0  0  0  0  0  0  0  0  0  0
    3.8696   -1.0075    2.1231 H   0  0  0  0  0  0  0  0  0  0  0  0
    5.6307    0.0556   -0.1423 H   0  0  0  0  0  0  0  0  0  0  0  0
    0.7654   -4.0625    1.2583 H   0  0  0  0  0  0  0  0  0  0  0  0
   -0.6452   -1.6350    1.1893 H   0  0  0  0  0  0  0  0  0  0  0  0
    4.2487   -2.6960    0.0650 H   0  0  0  0  0  0  0  0  0  0  0  0
   -0.5912   -4.6728   -1.4489 H   0  0  0  0  0  0  0  0  0  0  0  0
   -1.8027   -2.6327   -1.4760 H   0  0  0  0  0  0  0  0  0  0  0  0
    2.6894    2.7598    1.3196 H   0  0  0  0  0  0  0  0  0  0  0  0
    2.8414    3.4499   -1.6781 H   0  0  0  0  0  0  0  0  0  0  0  0
    2.2458    5.3552    0.6453 H   0  0  0  0  0  0  0  0  0  0  0  0
    6.4123   -2.7397   -1.1588 H   0  0  0  0  0  0  0  0  0  0  0  0
    5.0332   -2.9966   -2.2496 H   0  0  0  0  0  0  0  0  0  0  0  0
    5.8339   -1.4322   -2.2185 H   0  0  0  0  0  0  0  0  0  0  0  0
   -0.7304   -6.1388    1.2317 H   0  0  0  0  0  0  0  0  0  0  0  0
    0.1616   -6.7083   -0.2068 H   0  0  0  0  0  0  0  0  0  0  0  0
   -0.0945    5.4345   -0.1005 H   0  0  0  0  0  0  0  0  0  0  0  0
    0.4040    3.6034    1.5501 H   0  0  0  0  0  0  0  0  0  0  0  0
   -0.7968    3.0382    0.3748 H   0  0  0  0  0  0  0  0  0  0  0  0
    4.0288    1.1672    2.7661 H   0  0  0  0  0  0  0  0  0  0  0  0
    5.8623   -2.1199    1.6797 H   0  0  0  0  0  0  0  0  0  0  0  0
    1.7921   -4.5851   -1.3453 H   0  0  0  0  0  0  0  0  0  0  0  0
   -0.6188   -0.6688   -1.4840 H   0  0  0  0  0  0  0  0  0  0  0  0
   -4.2498   -3.4563   -0.5718 H   0  0  0  0  0  0  0  0  0  0  0  0
   -3.9581   -2.1111   -1.7018 H   0  0  0  0  0  0  0  0  0  0  0  0
    4.2977    4.2931    0.6129 H   0  0  0  0  0  0  0  0  0  0  0  0
    1.7124    6.7148   -1.1049 H   0  0  0  0  0  0  0  0  0  0  0  0
   -1.9325   -7.5717   -0.0411 H   0  0  0  0  0  0  0  0  0  0  0  0
   -0.8052    4.0311   -1.7269 H   0  0  0  0  0  0  0  0  0  0  0  0
   -6.2284   -1.9724   -0.6799 H   0  0  0  0  0  0  0  0  0  0  0  0
   -5.5236   -1.9684    0.9274 H   0  0  0  0  0  0  0  0  0  0  0  0
   -4.3676   -0.0744    1.7868 H   0  0  0  0  0  0  0  0  0  0  0  0
   -6.0366    0.0232   -2.1434 H   0  0  0  0  0  0  0  0  0  0  0  0
   -5.8145    2.4704   -2.2168 H   0  0  0  0  0  0  0  0  0  0  0  0
   -5.1669    4.2885   -1.1488 H   0  0  0  0  0  0  0  0  0  0  0  0
   -3.2213    2.4596    3.8373 H   0  0  0  0  0  0  0  0  0  0  0  0
   -2.8076    1.0868    2.8188 H   0  0  0  0  0  0  0  0  0  0  0  0
   -4.4735    1.2623    3.5335 H   0  0  0  0  0  0  0  0  0  0  0  0
  1 18  1  0  0  0  0
  1 19  1  0  0  0  0
  2 19  1  0  0  0  0
  2 24  1  0  0  0  0
  3 17  1  0  0  0  0
  3 27  1  0  0  0  0
  4 25  1  0  0  0  0
  4 26  1  0  0  0  0
  5 20  1  0  0  0  0
  5 64  1  0  0  0  0
  6 27  1  0  0  0  0
  6 33  1  0  0  0  0
  7 21  1  0  0  0  0
  7 65  1  0  0  0  0
  8 22  1  0  0  0  0
  8 66  1  0  0  0  0
  9 23  1  0  0  0  0
  9 67  1  0  0  0  0
 10 26  1  0  0  0  0
 10 34  1  0  0  0  0
 11 28  1  0  0  0  0
 11 70  1  0  0  0  0
 12 29  1  0  0  0  0
 12 71  1  0  0  0  0
 13 31  1  0  0  0  0
 13 72  1  0  0  0  0
 14 32  1  0  0  0  0
 14 73  1  0  0  0  0
 15 39  1  0  0  0  0
 15 42  1  0  0  0  0
 16 41  1  0  0  0  0
 16 79  1  0  0  0  0
 17 19  1  0  0  0  0
 17 20  1  0  0  0  0
 17 43  1  0  0  0  0
 18 22  1  0  0  0  0
 18 23  1  0  0  0  0
 18 44  1  0  0  0  0
 19 45  1  0  0  0  0
 20 21  1  0  0  0  0
 20 46  1  0  0  0  0
 21 24  1  0  0  0  0
 21 47  1  0  0  0  0
 22 25  1  0  0  0  0
 22 48  1  0  0  0  0
 23 26  1  0  0  0  0
 23 49  1  0  0  0  0
 24 30  1  0  0  0  0
 24 50  1  0  0  0  0
 25 31  1  0  0  0  0
 25 51  1  0  0  0  0
 26 52  1  0  0  0  0
 27 28  1  0  0  0  0
 27 53  1  0  0  0  0
 28 29  1  0  0  0  0
 28 54  1  0  0  0  0
 29 32  1  0  0  0  0
 29 55  1  0  0  0  0
 30 56  1  0  0  0  0
 30 57  1  0  0  0  0
 30 58  1  0  0  0  0
 31 59  1  0  0  0  0
 31 60  1  0  0  0  0
 32 33  1  0  0  0  0
 32 61  1  0  0  0  0
 33 62  1  0  0  0  0
 33 63  1  0  0  0  0
 34 35  1  0  0  0  0
 34 68  1  0  0  0  0
 34 69  1  0  0  0  0
 35 36  1  0  0  0  0
 35 74  1  0  0  0  0
 35 75  1  0  0  0  0
 36 37  2  0  0  0  0
 36 38  1  0  0  0  0
 37 39  1  0  0  0  0
 37 76  1  0  0  0  0
 38 40  2  0  0  0  0
 38 77  1  0  0  0  0
 39 41  2  0  0  0  0
 40 41  1  0  0  0  0
 40 78  1  0  0  0  0
 42 80  1  0  0  0  0
 42 81  1  0  0  0  0
 42 82  1  0  0  0  0
M  END
> <PUBCHEM_COMPOUND_CID>
57325810

> <PUBCHEM_CONFORMER_RMSD>
1.2

> <PUBCHEM_CONFORMER_DIVERSEORDER>
1
74
81
130
164
35
144
23
116
20
131
170
26
50
146
177
59
126
72
33
137
63
117
101
148
161
162
83
39
79
173
138
82
69
159
58
29
88
129
47
147
61
124
97
43
90
36
48
92
40
93
168
139
133
127
46
104
176
110
178
91
31
155
119
118
167
5
96
151
44
108
13
156
109
136
80
42
18
77
51
78
143
62
6
105
75
103
107
54
120
142
28
17
123
45
56
111
175
22
94
172
134
65
152
14
163
100
21
68
153
53
86
113
174
154
60
27
34
171
122
66
125
32
71
169
114
135
149
11
16
166
115
140
76
64
165
30
99
128
98
24
132
15
19
106
87
49
157
38
95
102
55
158
89
145
41
150
121
73
141
85
160
7
67
57
70
9
112
52
8
12
4
3
84
10
37
2
25

> <PUBCHEM_MMFF94_PARTIAL_CHARGES>
53
1 -0.56
10 -0.56
11 -0.68
12 -0.68
13 -0.68
14 -0.68
15 -0.36
16 -0.53
17 0.28
18 0.28
19 0.56
2 -0.56
20 0.28
21 0.28
22 0.28
23 0.28
24 0.28
25 0.28
26 0.56
27 0.56
28 0.28
29 0.28
3 -0.56
31 0.28
32 0.28
33 0.28
34 0.28
35 0.14
36 -0.14
37 -0.15
38 -0.15
39 0.08
4 -0.56
40 -0.15
41 0.08
42 0.28
5 -0.68
6 -0.56
64 0.4
65 0.4
66 0.4
67 0.4
7 -0.68
70 0.4
71 0.4
72 0.4
73 0.4
76 0.15
77 0.15
78 0.15
79 0.45
8 -0.68
9 -0.68

> <PUBCHEM_EFFECTIVE_ROTOR_COUNT>
13.6

> <PUBCHEM_PHARMACOPHORE_FEATURES>
28
1 1 acceptor
1 10 acceptor
1 11 acceptor
1 11 donor
1 12 acceptor
1 12 donor
1 13 acceptor
1 13 donor
1 14 acceptor
1 14 donor
1 15 acceptor
1 16 donor
1 2 acceptor
1 3 acceptor
1 4 acceptor
1 5 acceptor
1 5 donor
1 6 acceptor
1 7 acceptor
1 7 donor
1 8 acceptor
1 8 donor
1 9 acceptor
1 9 donor
6 2 17 19 20 21 24 rings
6 36 37 38 39 40 41 rings
6 4 18 22 23 25 26 rings
6 6 27 28 29 32 33 rings

> <PUBCHEM_HEAVY_ATOM_COUNT>
42

> <PUBCHEM_ATOM_DEF_STEREO_COUNT>
14

> <PUBCHEM_ATOM_UDEF_STEREO_COUNT>
0

> <PUBCHEM_BOND_DEF_STEREO_COUNT>
0

> <PUBCHEM_BOND_UDEF_STEREO_COUNT>
0

> <PUBCHEM_ISOTOPIC_ATOM_COUNT>
0

> <PUBCHEM_COMPONENT_COUNT>
1

> <PUBCHEM_CACTVS_TAUTO_COUNT>
3

> <PUBCHEM_CONFORMER_ID>
036AB8F200000001

> <PUBCHEM_MMFF94_ENERGY>
132.2818

> <PUBCHEM_FEATURE_SELFOVERLAP>
142.308

> <PUBCHEM_SHAPE_FINGERPRINT>
10439779 11 18267286789898943610
10581848 31 18201155550338758665
10864689 126 17978507529421685005
11513181 2 18128822034664015550
13560911 43 18334288804034674731
14117953 113 18267019458213069885
14466204 15 18410289181781178387
14790565 3 18409731776424652030
15001296 14 18263361567974368185
15320291 9 18196647629995185919
15320467 1 18050004695047464053
16112460 7 18411134757841829196
16993438 75 16247169065706097857
17627616 140 18192720170351029693
20764821 26 18409175398051190845
3493558 16 18050003595277035623
437795 96 18190734229339930077
550186 83 17895183360262013472
6371009 1 18267566057410156647
66674814 147 18412818075789250841
9961470 85 18125706027728360049

> <PUBCHEM_SHAPE_MULTIPOLES>
770.43
13.09
9.72
1.49
4.74
2.68
0.82
-3.61
0.38
-1.52
-2.55
0.47
-1.12
-0.76

> <PUBCHEM_SHAPE_SELFOVERLAP>
1610.784

> <PUBCHEM_SHAPE_VOLUME>
428.3

> <PUBCHEM_COORDINATE_TYPE>
2
5
10

$$$$
