57325811
  -OEChem-08282013443D

 86 89  0     1  0  0  0  0  0999 V2000
   -3.7218   -0.1515    0.0770 O   0  0  0  0  0  0  0  0  0  0  0  0
    0.0976   -1.0108   -1.1641 O   0  0  0  0  0  0  0  0  0  0  0  0
   -5.7413    0.0425   -1.1542 O   0  0  0  0  0  0  0  0  0  0  0  0
    0.9640    1.5472   -0.5351 O   0  0  0  0  0  0  0  0  0  0  0  0
   -2.3416    1.6692   -1.6938 O   0  0  0  0  0  0  0  0  0  0  0  0
    3.2388    1.9944   -0.7982 O   0  0  0  0  0  0  0  0  0  0  0  0
   -0.1220   -3.2468   -0.5344 O   0  0  0  0  0  0  0  0  0  0  0  0
   -2.9340   -2.9341   -0.4861 O   0  0  0  0  0  0  0  0  0  0  0  0
   -6.9079   -1.7594    0.7569 O   0  0  0  0  0  0  0  0  0  0  0  0
   -7.0990    0.1600    2.7630 O   0  0  0  0  0  0  0  0  0  0  0  0
   -7.2093    2.5143    1.1532 O   0  0  0  0  0  0  0  0  0  0  0  0
    0.7129    3.8744    1.0551 O   0  0  0  0  0  0  0  0  0  0  0  0
    3.2383    4.5586    2.4098 O   0  0  0  0  0  0  0  0  0  0  0  0
    5.4175    4.6306    0.5122 O   0  0  0  0  0  0  0  0  0  0  0  0
    5.3504    1.6919   -2.5318 O   0  0  0  0  0  0  0  0  0  0  0  0
    5.7816   -2.0288    0.2267 O   0  0  0  0  0  0  0  0  0  0  0  0
    4.9401   -1.5587    2.8335 O   0  0  0  0  0  0  0  0  0  0  0  0
   -2.7223   -0.5593   -0.8585 C   0  0  1  0  0  0  0  0  0  0  0  0
   -1.7200    0.5853   -1.0086 C   0  0  1  0  0  0  0  0  0  0  0  0
   -0.4885    0.1293   -1.7947 C   0  0  1  0  0  0  0  0  0  0  0  0
   -2.0395   -1.8299   -0.3521 C   0  0  2  0  0  0  0  0  0  0  0  0
   -0.7746   -2.1384   -1.1532 C   0  0  1  0  0  0  0  0  0  0  0  0
   -4.9843   -0.7371   -0.2219 C   0  0  2  0  0  0  0  0  0  0  0  0
   -5.7735   -0.9490    1.0687 C   0  0  1  0  0  0  0  0  0  0  0  0
   -6.2326    0.3877    1.6538 C   0  0  1  0  0  0  0  0  0  0  0  0
    0.5771    1.2190   -1.8570 C   0  0  0  0  0  0  0  0  0  0  0  0
   -6.9674    1.2215    0.6036 C   0  0  2  0  0  0  0  0  0  0  0  0
   -6.1168    1.3356   -0.6690 C   0  0  2  0  0  0  0  0  0  0  0  0
    1.9637    2.5656   -0.5144 C   0  0  2  0  0  0  0  0  0  0  0  0
    1.9590    3.2017    0.8756 C   0  0  1  0  0  0  0  0  0  0  0  0
    3.1035    4.2029    1.0330 C   0  0  2  0  0  0  0  0  0  0  0  0
    4.4306    3.6039    0.5673 C   0  0  1  0  0  0  0  0  0  0  0  0
    4.2836    2.9687   -0.8174 C   0  0  1  0  0  0  0  0  0  0  0  0
   -6.8683    2.0345   -1.7986 C   0  0  0  0  0  0  0  0  0  0  0  0
    5.5634    2.2620   -1.2534 C   0  0  0  0  0  0  0  0  0  0  0  0
    0.7755   -3.8830   -1.4307 C   0  0  0  0  0  0  0  0  0  0  0  0
    1.7827   -4.7167   -0.6462 C   0  0  0  0  0  0  0  0  0  0  0  0
    2.6272   -3.8751    0.2795 C   0  0  0  0  0  0  0  0  0  0  0  0
    3.8301   -3.3332   -0.1734 C   0  0  0  0  0  0  0  0  0  0  0  0
    2.2044   -3.6384    1.5875 C   0  0  0  0  0  0  0  0  0  0  0  0
    4.6100   -2.5545    0.6815 C   0  0  0  0  0  0  0  0  0  0  0  0
    2.9844   -2.8600    2.4426 C   0  0  0  0  0  0  0  0  0  0  0  0
    4.1872   -2.3178    1.9896 C   0  0  0  0  0  0  0  0  0  0  0  0
    6.1409   -2.3186   -1.1230 C   0  0  0  0  0  0  0  0  0  0  0  0
   -3.1932   -0.7377   -1.8361 H   0  0  0  0  0  0  0  0  0  0  0  0
   -1.4441    0.9456   -0.0104 H   0  0  0  0  0  0  0  0  0  0  0  0
   -0.7614   -0.1289   -2.8266 H   0  0  0  0  0  0  0  0  0  0  0  0
   -1.8081   -1.7366    0.7157 H   0  0  0  0  0  0  0  0  0  0  0  0
   -1.0427   -2.4126   -2.1836 H   0  0  0  0  0  0  0  0  0  0  0  0
   -4.8736   -1.7117   -0.7031 H   0  0  0  0  0  0  0  0  0  0  0  0
   -5.1789   -1.4885    1.8149 H   0  0  0  0  0  0  0  0  0  0  0  0
   -5.3701    0.9491    2.0344 H   0  0  0  0  0  0  0  0  0  0  0  0
    0.1898    2.1051   -2.3728 H   0  0  0  0  0  0  0  0  0  0  0  0
    1.4512    0.8435   -2.4020 H   0  0  0  0  0  0  0  0  0  0  0  0
   -7.9424    0.7702    0.3851 H   0  0  0  0  0  0  0  0  0  0  0  0
   -5.2090    1.9197   -0.4696 H   0  0  0  0  0  0  0  0  0  0  0  0
    1.7200    3.3250   -1.2706 H   0  0  0  0  0  0  0  0  0  0  0  0
    2.0155    2.4285    1.6510 H   0  0  0  0  0  0  0  0  0  0  0  0
    2.8857    5.1342    0.4972 H   0  0  0  0  0  0  0  0  0  0  0  0
    4.7742    2.8586    1.2951 H   0  0  0  0  0  0  0  0  0  0  0  0
    4.0399    3.7260   -1.5750 H   0  0  0  0  0  0  0  0  0  0  0  0
   -2.5955    1.3597   -2.5800 H   0  0  0  0  0  0  0  0  0  0  0  0
   -3.1107   -3.0659   -1.4333 H   0  0  0  0  0  0  0  0  0  0  0  0
   -7.7701    1.4755   -2.0720 H   0  0  0  0  0  0  0  0  0  0  0  0
   -6.2442    2.0836   -2.6976 H   0  0  0  0  0  0  0  0  0  0  0  0
   -7.1568    3.0523   -1.5202 H   0  0  0  0  0  0  0  0  0  0  0  0
    5.8136    1.4486   -0.5639 H   0  0  0  0  0  0  0  0  0  0  0  0
    6.4061    2.9571   -1.3143 H   0  0  0  0  0  0  0  0  0  0  0  0
   -6.5784   -2.6222    0.4527 H   0  0  0  0  0  0  0  0  0  0  0  0
   -6.6106   -0.3773    3.4098 H   0  0  0  0  0  0  0  0  0  0  0  0
    0.2013   -4.5302   -2.1030 H   0  0  0  0  0  0  0  0  0  0  0  0
    1.3106   -3.1425   -2.0389 H   0  0  0  0  0  0  0  0  0  0  0  0
   -6.3494    2.9356    1.3225 H   0  0  0  0  0  0  0  0  0  0  0  0
    0.6420    4.5650    0.3743 H   0  0  0  0  0  0  0  0  0  0  0  0
    3.4152    3.7474    2.9159 H   0  0  0  0  0  0  0  0  0  0  0  0
    5.1286    5.2902   -0.1413 H   0  0  0  0  0  0  0  0  0  0  0  0
    1.2527   -5.4710   -0.0504 H   0  0  0  0  0  0  0  0  0  0  0  0
    2.4285   -5.2701   -1.3386 H   0  0  0  0  0  0  0  0  0  0  0  0
    6.1719    1.2366   -2.7835 H   0  0  0  0  0  0  0  0  0  0  0  0
    4.1048   -3.5488   -1.2005 H   0  0  0  0  0  0  0  0  0  0  0  0
    1.2693   -4.0544    1.9531 H   0  0  0  0  0  0  0  0  0  0  0  0
    2.6430   -2.6832    3.4590 H   0  0  0  0  0  0  0  0  0  0  0  0
    4.4911   -1.5023    3.6945 H   0  0  0  0  0  0  0  0  0  0  0  0
    6.3019   -3.3910   -1.2773 H   0  0  0  0  0  0  0  0  0  0  0  0
    5.4197   -1.8971   -1.8317 H   0  0  0  0  0  0  0  0  0  0  0  0
    7.0986   -1.8232   -1.3142 H   0  0  0  0  0  0  0  0  0  0  0  0
  1 18  1  0  0  0  0
  1 23  1  0  0  0  0
  2 20  1  0  0  0  0
  2 22  1  0  0  0  0
  3 23  1  0  0  0  0
  3 28  1  0  0  0  0
  4 26  1  0  0  0  0
  4 29  1  0  0  0  0
  5 19  1  0  0  0  0
  5 62  1  0  0  0  0
  6 29  1  0  0  0  0
  6 33  1  0  0  0  0
  7 22  1  0  0  0  0
  7 36  1  0  0  0  0
  8 21  1  0  0  0  0
  8 63  1  0  0  0  0
  9 24  1  0  0  0  0
  9 69  1  0  0  0  0
 10 25  1  0  0  0  0
 10 70  1  0  0  0  0
 11 27  1  0  0  0  0
 11 73  1  0  0  0  0
 12 30  1  0  0  0  0
 12 74  1  0  0  0  0
 13 31  1  0  0  0  0
 13 75  1  0  0  0  0
 14 32  1  0  0  0  0
 14 76  1  0  0  0  0
 15 35  1  0  0  0  0
 15 79  1  0  0  0  0
 16 41  1  0  0  0  0
 16 44  1  0  0  0  0
 17 43  1  0  0  0  0
 17 83  1  0  0  0  0
 18 19  1  0  0  0  0
 18 21  1  0  0  0  0
 18 45  1  0  0  0  0
 19 20  1  0  0  0  0
 19 46  1  0  0  0  0
 20 26  1  0  0  0  0
 20 47  1  0  0  0  0
 21 22  1  0  0  0  0
 21 48  1  0  0  0  0
 22 49  1  0  0  0  0
 23 24  1  0  0  0  0
 23 50  1  0  0  0  0
 24 25  1  0  0  0  0
 24 51  1  0  0  0  0
 25 27  1  0  0  0  0
 25 52  1  0  0  0  0
 26 53  1  0  0  0  0
 26 54  1  0  0  0  0
 27 28  1  0  0  0  0
 27 55  1  0  0  0  0
 28 34  1  0  0  0  0
 28 56  1  0  0  0  0
 29 30  1  0  0  0  0
 29 57  1  0  0  0  0
 30 31  1  0  0  0  0
 30 58  1  0  0  0  0
 31 32  1  0  0  0  0
 31 59  1  0  0  0  0
 32 33  1  0  0  0  0
 32 60  1  0  0  0  0
 33 35  1  0  0  0  0
 33 61  1  0  0  0  0
 34 64  1  0  0  0  0
 34 65  1  0  0  0  0
 34 66  1  0  0  0  0
 35 67  1  0  0  0  0
 35 68  1  0  0  0  0
 36 37  1  0  0  0  0
 36 71  1  0  0  0  0
 36 72  1  0  0  0  0
 37 38  1  0  0  0  0
 37 77  1  0  0  0  0
 37 78  1  0  0  0  0
 38 39  2  0  0  0  0
 38 40  1  0  0  0  0
 39 41  1  0  0  0  0
 39 80  1  0  0  0  0
 40 42  2  0  0  0  0
 40 81  1  0  0  0  0
 41 43  2  0  0  0  0
 42 43  1  0  0  0  0
 42 82  1  0  0  0  0
 44 84  1  0  0  0  0
 44 85  1  0  0  0  0
 44 86  1  0  0  0  0
M  END
> <PUBCHEM_COMPOUND_CID>
57325811

> <PUBCHEM_CONFORMER_RMSD>
1.4

> <PUBCHEM_CONFORMER_DIVERSEORDER>
1
124
97
77
140
36
15
115
56
101
94
21
123
65
87
113
126
26
19
38
109
139
41
17
79
132
55
136
49
64
3
48
107
32
88
114
45
78
59
128
73
23
122
18
110
91
31
24
4
11
121
93
16
105
74
95
85
137
14
99
83
25
27
129
96
118
76
9
86
54
82
119
12
89
75
104
103
80
130
22
135
42
138
70
98
81
125
39
112
134
58
57
133
37
53
108
20
10
117
71
116
28
6
40
47
51
120
106
46
68
90
66
29
69
102
35
5
92
44
131
100
34
8
62
52
84
127
13
61
111
72
43
50
30
63
67
33
60
7
2

> <PUBCHEM_MMFF94_PARTIAL_CHARGES>
56
1 -0.56
10 -0.68
11 -0.68
12 -0.68
13 -0.68
14 -0.68
15 -0.68
16 -0.36
17 -0.53
18 0.28
19 0.28
2 -0.56
20 0.28
21 0.28
22 0.56
23 0.56
24 0.28
25 0.28
26 0.28
27 0.28
28 0.28
29 0.56
3 -0.56
30 0.28
31 0.28
32 0.28
33 0.28
35 0.28
36 0.28
37 0.14
38 -0.14
39 -0.15
4 -0.56
40 -0.15
41 0.08
42 -0.15
43 0.08
44 0.28
5 -0.68
6 -0.56
62 0.4
63 0.4
69 0.4
7 -0.56
70 0.4
73 0.4
74 0.4
75 0.4
76 0.4
79 0.4
8 -0.68
80 0.15
81 0.15
82 0.15
83 0.45
9 -0.68

> <PUBCHEM_EFFECTIVE_ROTOR_COUNT>
14.6

> <PUBCHEM_PHARMACOPHORE_FEATURES>
30
1 1 acceptor
1 10 acceptor
1 10 donor
1 11 acceptor
1 11 donor
1 12 acceptor
1 12 donor
1 13 acceptor
1 13 donor
1 14 acceptor
1 14 donor
1 15 acceptor
1 15 donor
1 16 acceptor
1 17 donor
1 2 acceptor
1 3 acceptor
1 4 acceptor
1 5 acceptor
1 5 donor
1 6 acceptor
1 7 acceptor
1 8 acceptor
1 8 donor
1 9 acceptor
1 9 donor
6 2 18 19 20 21 22 rings
6 3 23 24 25 27 28 rings
6 38 39 40 41 42 43 rings
6 6 29 30 31 32 33 rings

> <PUBCHEM_HEAVY_ATOM_COUNT>
44

> <PUBCHEM_ATOM_DEF_STEREO_COUNT>
15

> <PUBCHEM_ATOM_UDEF_STEREO_COUNT>
0

> <PUBCHEM_BOND_DEF_STEREO_COUNT>
0

> <PUBCHEM_BOND_UDEF_STEREO_COUNT>
0

> <PUBCHEM_ISOTOPIC_ATOM_COUNT>
0

> <PUBCHEM_COMPONENT_COUNT>
1

> <PUBCHEM_CACTVS_TAUTO_COUNT>
3

> <PUBCHEM_CONFORMER_ID>
036AB8F300000001

> <PUBCHEM_MMFF94_ENERGY>
135.3292

> <PUBCHEM_FEATURE_SELFOVERLAP>
152.468

> <PUBCHEM_SHAPE_FINGERPRINT>
10258939 38 15792019904938796982
10290309 65 18264475346893431116
12128747 34 18259706675190776917
12522641 24 18410857646636098969
13008946 113 18187934940948713421
15200665 1 17688316002656865203
15927050 60 18196370540365188414
19611394 137 18115870698338516106
23191077 185 17774155850753486903
394071 54 18270677571689337150
4112364 45 18342181077024299883
5265222 85 17755316891564562596
6371380 46 18199473332377693324
9896288 288 17905047310865921138

> <PUBCHEM_SHAPE_MULTIPOLES>
805.72
18.4
7.16
2.28
29.44
1.89
-0.89
5.82
-4.74
-13.5
-1.71
-0.53
0.16
-0.42

> <PUBCHEM_SHAPE_SELFOVERLAP>
1680.605

> <PUBCHEM_SHAPE_VOLUME>
449.3

> <PUBCHEM_COORDINATE_TYPE>
2
5
10

$$$$
