10084655
  -OEChem-08302005513D

 52 54  0     1  0  0  0  0  0999 V2000
   -1.0022   -0.8650   -0.8152 C   0  0  1  0  0  0  0  0  0  0  0  0
   -2.1030    0.2616   -0.8631 C   0  0  1  0  0  0  0  0  0  0  0  0
   -2.9216    0.4824    0.4733 C   0  0  0  0  0  0  0  0  0  0  0  0
    0.2972   -0.3587   -0.1610 C   0  0  0  0  0  0  0  0  0  0  0  0
   -1.6181   -2.1388   -0.1735 C   0  0  0  0  0  0  0  0  0  0  0  0
   -1.5205    1.5472   -1.4800 C   0  0  0  0  0  0  0  0  0  0  0  0
   -3.4121   -0.8825    1.0154 C   0  0  0  0  0  0  0  0  0  0  0  0
    0.6542    0.9443   -0.2319 C   0  0  0  0  0  0  0  0  0  0  0  0
   -2.2896   -1.8966    1.1685 C   0  0  0  0  0  0  0  0  0  0  0  0
   -0.2015    2.0115   -0.8680 C   0  0  0  0  0  0  0  0  0  0  0  0
   -0.6066   -1.2766   -2.2633 C   0  0  0  0  0  0  0  0  0  0  0  0
    1.2126   -1.3819    0.4863 C   0  0  0  0  0  0  0  0  0  0  0  0
    1.9663    1.4683    0.3192 C   0  0  0  0  0  0  0  0  0  0  0  0
    3.0498    0.3911    0.5393 C   0  0  2  0  0  0  0  0  0  0  0  0
   -4.1878    1.3258    0.1775 C   0  0  0  0  0  0  0  0  0  0  0  0
   -2.1585    1.2099    1.5972 C   0  0  0  0  0  0  0  0  0  0  0  0
    2.4002   -0.7984    1.2602 C   0  0  0  0  0  0  0  0  0  0  0  0
    4.1825    0.9689    1.4020 C   0  0  0  0  0  0  0  0  0  0  0  0
    3.6493   -0.0415   -0.7782 C   0  0  0  0  0  0  0  0  0  0  0  0
    4.6094   -0.9708   -0.8046 C   0  0  0  0  0  0  0  0  0  0  0  0
   -2.8551   -0.0901   -1.5879 H   0  0  0  0  0  0  0  0  0  0  0  0
   -0.8728   -2.9364   -0.0719 H   0  0  0  0  0  0  0  0  0  0  0  0
   -2.3767   -2.5491   -0.8561 H   0  0  0  0  0  0  0  0  0  0  0  0
   -2.2417    2.3704   -1.4577 H   0  0  0  0  0  0  0  0  0  0  0  0
   -1.3507    1.3686   -2.5502 H   0  0  0  0  0  0  0  0  0  0  0  0
   -4.1689   -1.2978    0.3358 H   0  0  0  0  0  0  0  0  0  0  0  0
   -3.9134   -0.7544    1.9833 H   0  0  0  0  0  0  0  0  0  0  0  0
   -2.7084   -2.8409    1.5359 H   0  0  0  0  0  0  0  0  0  0  0  0
   -1.5641   -1.5665    1.9183 H   0  0  0  0  0  0  0  0  0  0  0  0
   -0.4065    2.7831   -0.1172 H   0  0  0  0  0  0  0  0  0  0  0  0
    0.3772    2.5129   -1.6546 H   0  0  0  0  0  0  0  0  0  0  0  0
    0.0539   -2.1524   -2.2604 H   0  0  0  0  0  0  0  0  0  0  0  0
   -1.4909   -1.5386   -2.8559 H   0  0  0  0  0  0  0  0  0  0  0  0
   -0.0763   -0.4809   -2.7979 H   0  0  0  0  0  0  0  0  0  0  0  0
    0.6541   -1.9947    1.2005 H   0  0  0  0  0  0  0  0  0  0  0  0
    1.5850   -2.0593   -0.2915 H   0  0  0  0  0  0  0  0  0  0  0  0
    2.3624    2.2423   -0.3526 H   0  0  0  0  0  0  0  0  0  0  0  0
    1.7403    1.9739    1.2681 H   0  0  0  0  0  0  0  0  0  0  0  0
   -3.9405    2.3556   -0.0979 H   0  0  0  0  0  0  0  0  0  0  0  0
   -4.8396    1.3782    1.0577 H   0  0  0  0  0  0  0  0  0  0  0  0
   -4.7744    0.8903   -0.6390 H   0  0  0  0  0  0  0  0  0  0  0  0
   -1.2274    0.7102    1.8712 H   0  0  0  0  0  0  0  0  0  0  0  0
   -2.7669    1.2585    2.5089 H   0  0  0  0  0  0  0  0  0  0  0  0
   -1.9326    2.2453    1.3296 H   0  0  0  0  0  0  0  0  0  0  0  0
    2.0347   -0.4606    2.2411 H   0  0  0  0  0  0  0  0  0  0  0  0
    3.1181   -1.5986    1.4786 H   0  0  0  0  0  0  0  0  0  0  0  0
    4.9310    0.2183    1.6792 H   0  0  0  0  0  0  0  0  0  0  0  0
    4.7002    1.7881    0.8884 H   0  0  0  0  0  0  0  0  0  0  0  0
    3.7870    1.3748    2.3410 H   0  0  0  0  0  0  0  0  0  0  0  0
    3.3108    0.4043   -1.7084 H   0  0  0  0  0  0  0  0  0  0  0  0
    5.0379   -1.2734   -1.7547 H   0  0  0  0  0  0  0  0  0  0  0  0
    4.9941   -1.4566    0.0841 H   0  0  0  0  0  0  0  0  0  0  0  0
  1  2  1  0  0  0  0
  1  4  1  0  0  0  0
  1  5  1  0  0  0  0
  1 11  1  0  0  0  0
  2  3  1  0  0  0  0
  2  6  1  0  0  0  0
  2 21  1  0  0  0  0
  3  7  1  0  0  0  0
  3 15  1  0  0  0  0
  3 16  1  0  0  0  0
  4  8  2  0  0  0  0
  4 12  1  0  0  0  0
  5  9  1  0  0  0  0
  5 22  1  0  0  0  0
  5 23  1  0  0  0  0
  6 10  1  0  0  0  0
  6 24  1  0  0  0  0
  6 25  1  0  0  0  0
  7  9  1  0  0  0  0
  7 26  1  0  0  0  0
  7 27  1  0  0  0  0
  8 10  1  0  0  0  0
  8 13  1  0  0  0  0
  9 28  1  0  0  0  0
  9 29  1  0  0  0  0
 10 30  1  0  0  0  0
 10 31  1  0  0  0  0
 11 32  1  0  0  0  0
 11 33  1  0  0  0  0
 11 34  1  0  0  0  0
 12 17  1  0  0  0  0
 12 35  1  0  0  0  0
 12 36  1  0  0  0  0
 13 14  1  0  0  0  0
 13 37  1  0  0  0  0
 13 38  1  0  0  0  0
 14 17  1  0  0  0  0
 14 18  1  0  0  0  0
 14 19  1  0  0  0  0
 15 39  1  0  0  0  0
 15 40  1  0  0  0  0
 15 41  1  0  0  0  0
 16 42  1  0  0  0  0
 16 43  1  0  0  0  0
 16 44  1  0  0  0  0
 17 45  1  0  0  0  0
 17 46  1  0  0  0  0
 18 47  1  0  0  0  0
 18 48  1  0  0  0  0
 18 49  1  0  0  0  0
 19 20  2  0  0  0  0
 19 50  1  0  0  0  0
 20 51  1  0  0  0  0
 20 52  1  0  0  0  0
M  END
> <PUBCHEM_COMPOUND_CID>
10084655

> <PUBCHEM_CONFORMER_RMSD>
0.6

> <PUBCHEM_CONFORMER_DIVERSEORDER>
1
7
9
11
3
6
8
5
10
4
2

> <PUBCHEM_MMFF94_PARTIAL_CHARGES>
12
1 0.14
10 0.14
12 0.14
13 0.14
14 0.14
19 -0.29
20 -0.3
4 -0.28
50 0.15
51 0.15
52 0.15
8 -0.28

> <PUBCHEM_EFFECTIVE_ROTOR_COUNT>
3

> <PUBCHEM_PHARMACOPHORE_FEATURES>
5
1 20 hydrophobe
3 3 15 16 hydrophobe
6 1 2 3 5 7 9 rings
6 1 2 4 6 8 10 rings
6 4 8 12 13 14 17 rings

> <PUBCHEM_HEAVY_ATOM_COUNT>
20

> <PUBCHEM_ATOM_DEF_STEREO_COUNT>
2

> <PUBCHEM_ATOM_UDEF_STEREO_COUNT>
1

> <PUBCHEM_BOND_DEF_STEREO_COUNT>
0

> <PUBCHEM_BOND_UDEF_STEREO_COUNT>
0

> <PUBCHEM_ISOTOPIC_ATOM_COUNT>
0

> <PUBCHEM_COMPONENT_COUNT>
1

> <PUBCHEM_CACTVS_TAUTO_COUNT>
1

> <PUBCHEM_CONFORMER_ID>
0099E12F00000001

> <PUBCHEM_MMFF94_ENERGY>
61.546

> <PUBCHEM_FEATURE_SELFOVERLAP>
25.437

> <PUBCHEM_SHAPE_FINGERPRINT>
10366900 7 17530967994477115233
10863032 1 18334854983529228283
10948715 1 17988081080713034553
11132069 177 18335137613588377816
12011746 2 18334296431622285485
12173636 292 17418086633200994404
12251169 10 18334300885524509337
12382932 28 18333730217166632595
12403814 3 16081081584741868519
12507560 40 18201161039190502650
12553582 1 17894629274862160144
12633257 1 17894911828007771737
12714826 92 17167854279361880223
13140716 1 18189047754126867968
13172582 1 18411419513920015309
13221675 6 18334855013404003996
13224815 77 17749103422411353008
13296908 3 18342735256448527326
13675066 3 18272089430887421632
14004511 7 16056602036502173926
14223421 5 18050851318573317360
14289901 80 17417237883681783712
15295992 7 16702304563429336499
15309172 13 18060137617782786871
15375462 189 17313100860586625464
15375462 478 18269842085071068091
16945 1 18260539009313054724
17804303 29 18409455799042977325
1813 80 16081376262506192775
18186145 218 18412538813116024184
18981168 100 16987134227646989296
21452121 71 17387992012507421859
2334 1 17972594669562230972
23402539 116 11455883616581463865
23419403 2 16114220977109531189
23493267 7 18042967575599998012
23559900 14 18042974177112892894
25 1 11887415593802029011
2748010 2 18117822511923817524
2838139 119 16557911087902237849
598444 67 18044373829581613007
6287921 2 18050854617620104876
74978 22 16845000321001678146

> <PUBCHEM_SHAPE_MULTIPOLES>
411.59
7.18
2.07
1.63
4.66
0.15
0.29
-0.47
-1.72
-0.92
0.08
-0.16
0.12
0.56

> <PUBCHEM_SHAPE_SELFOVERLAP>
859.695

> <PUBCHEM_SHAPE_VOLUME>
232.4

> <PUBCHEM_COORDINATE_TYPE>
2
5
10

$$$$
