10521953
  -OEChem-08282006313D

 57 60  0     1  0  0  0  0  0999 V2000
    1.2228   -0.2670   -0.1692 O   0  0  0  0  0  0  0  0  0  0  0  0
    3.7405    0.3151   -1.6897 O   0  0  0  0  0  0  0  0  0  0  0  0
   -1.5528   -3.3424   -1.2751 O   0  0  0  0  0  0  0  0  0  0  0  0
   -3.2818   -1.4024   -1.0443 O   0  0  0  0  0  0  0  0  0  0  0  0
    4.3418    2.5373   -1.1344 O   0  0  0  0  0  0  0  0  0  0  0  0
   -0.9225    0.2460    0.9990 C   0  0  2  0  0  0  0  0  0  0  0  0
    0.3222   -0.7744    0.8510 C   0  0  1  0  0  0  0  0  0  0  0  0
   -1.6946    0.3198   -0.3731 C   0  0  2  0  0  0  0  0  0  0  0  0
   -0.2168   -2.1881    0.3921 C   0  0  1  0  0  0  0  0  0  0  0  0
   -2.7884    1.4345   -0.5355 C   0  0  0  0  0  0  0  0  0  0  0  0
    1.1928   -0.8801    2.1196 C   0  0  0  0  0  0  0  0  0  0  0  0
   -0.4304    1.6882    1.3179 C   0  0  0  0  0  0  0  0  0  0  0  0
    2.5824   -0.2442    0.3058 C   0  0  2  0  0  0  0  0  0  0  0  0
    2.6139   -1.0042    1.6129 C   0  0  0  0  0  0  0  0  0  0  0  0
   -0.9883   -2.0847   -0.9344 C   0  0  2  0  0  0  0  0  0  0  0  0
   -2.1212   -1.0874   -0.7937 C   0  0  0  0  0  0  0  0  0  0  0  0
   -2.1762    2.7957   -0.1209 C   0  0  0  0  0  0  0  0  0  0  0  0
   -1.5093    2.7676    1.2472 C   0  0  0  0  0  0  0  0  0  0  0  0
   -1.8265   -0.2415    2.1611 C   0  0  0  0  0  0  0  0  0  0  0  0
    3.0919    1.1817    0.4060 C   0  0  0  0  0  0  0  0  0  0  0  0
    0.8365   -3.3000    0.2693 C   0  0  0  0  0  0  0  0  0  0  0  0
    3.4980   -0.7791   -0.7853 C   0  0  0  0  0  0  0  0  0  0  0  0
   -3.1816    1.5607   -2.0310 C   0  0  0  0  0  0  0  0  0  0  0  0
   -4.0947    1.2132    0.2544 C   0  0  0  0  0  0  0  0  0  0  0  0
    3.3423    1.5358   -1.0498 C   0  0  2  0  0  0  0  0  0  0  0  0
   -0.9361    0.5870   -1.1274 H   0  0  0  0  0  0  0  0  0  0  0  0
   -0.9116   -2.5522    1.1608 H   0  0  0  0  0  0  0  0  0  0  0  0
    0.9067   -1.7102    2.7733 H   0  0  0  0  0  0  0  0  0  0  0  0
    1.1367    0.0250    2.7299 H   0  0  0  0  0  0  0  0  0  0  0  0
    0.3368    1.9727    0.5927 H   0  0  0  0  0  0  0  0  0  0  0  0
    0.0289    1.7381    2.3101 H   0  0  0  0  0  0  0  0  0  0  0  0
    3.3410   -0.6088    2.3300 H   0  0  0  0  0  0  0  0  0  0  0  0
    2.8825   -2.0515    1.4516 H   0  0  0  0  0  0  0  0  0  0  0  0
   -0.3358   -1.7709   -1.7566 H   0  0  0  0  0  0  0  0  0  0  0  0
   -2.9435    3.5804   -0.1309 H   0  0  0  0  0  0  0  0  0  0  0  0
   -1.4236    3.0994   -0.8617 H   0  0  0  0  0  0  0  0  0  0  0  0
   -2.2523    2.6355    2.0391 H   0  0  0  0  0  0  0  0  0  0  0  0
   -1.0441    3.7436    1.4329 H   0  0  0  0  0  0  0  0  0  0  0  0
   -2.4533   -1.0905    1.8730 H   0  0  0  0  0  0  0  0  0  0  0  0
   -1.2342   -0.5528    3.0275 H   0  0  0  0  0  0  0  0  0  0  0  0
   -2.4911    0.5349    2.5397 H   0  0  0  0  0  0  0  0  0  0  0  0
    4.0276    1.2142    0.9795 H   0  0  0  0  0  0  0  0  0  0  0  0
    2.4096    1.8902    0.8770 H   0  0  0  0  0  0  0  0  0  0  0  0
    0.3811   -4.2448   -0.0471 H   0  0  0  0  0  0  0  0  0  0  0  0
    1.6066   -3.0517   -0.4633 H   0  0  0  0  0  0  0  0  0  0  0  0
    1.3080   -3.5110    1.2325 H   0  0  0  0  0  0  0  0  0  0  0  0
    4.4689   -1.0959   -0.3890 H   0  0  0  0  0  0  0  0  0  0  0  0
    3.0602   -1.5973   -1.3619 H   0  0  0  0  0  0  0  0  0  0  0  0
   -3.7099    0.6741   -2.3942 H   0  0  0  0  0  0  0  0  0  0  0  0
   -3.8440    2.4194   -2.1924 H   0  0  0  0  0  0  0  0  0  0  0  0
   -2.2993    1.7061   -2.6645 H   0  0  0  0  0  0  0  0  0  0  0  0
   -4.8239    1.9968    0.0118 H   0  0  0  0  0  0  0  0  0  0  0  0
   -4.5757    0.2616    0.0185 H   0  0  0  0  0  0  0  0  0  0  0  0
   -3.9594    1.2570    1.3339 H   0  0  0  0  0  0  0  0  0  0  0  0
    2.4351    1.8987   -1.5440 H   0  0  0  0  0  0  0  0  0  0  0  0
   -1.9515   -3.2547   -2.1579 H   0  0  0  0  0  0  0  0  0  0  0  0
    5.0108    2.3732   -0.4495 H   0  0  0  0  0  0  0  0  0  0  0  0
  1  7  1  0  0  0  0
  1 13  1  0  0  0  0
  2 22  1  0  0  0  0
  2 25  1  0  0  0  0
  3 15  1  0  0  0  0
  3 56  1  0  0  0  0
  4 16  2  0  0  0  0
  5 25  1  0  0  0  0
  5 57  1  0  0  0  0
  6  7  1  0  0  0  0
  6  8  1  0  0  0  0
  6 12  1  0  0  0  0
  6 19  1  0  0  0  0
  7  9  1  0  0  0  0
  7 11  1  0  0  0  0
  8 10  1  0  0  0  0
  8 16  1  0  0  0  0
  8 26  1  0  0  0  0
  9 15  1  0  0  0  0
  9 21  1  0  0  0  0
  9 27  1  0  0  0  0
 10 17  1  0  0  0  0
 10 23  1  0  0  0  0
 10 24  1  0  0  0  0
 11 14  1  0  0  0  0
 11 28  1  0  0  0  0
 11 29  1  0  0  0  0
 12 18  1  0  0  0  0
 12 30  1  0  0  0  0
 12 31  1  0  0  0  0
 13 14  1  0  0  0  0
 13 20  1  0  0  0  0
 13 22  1  0  0  0  0
 14 32  1  0  0  0  0
 14 33  1  0  0  0  0
 15 16  1  0  0  0  0
 15 34  1  0  0  0  0
 17 18  1  0  0  0  0
 17 35  1  0  0  0  0
 17 36  1  0  0  0  0
 18 37  1  0  0  0  0
 18 38  1  0  0  0  0
 19 39  1  0  0  0  0
 19 40  1  0  0  0  0
 19 41  1  0  0  0  0
 20 25  1  0  0  0  0
 20 42  1  0  0  0  0
 20 43  1  0  0  0  0
 21 44  1  0  0  0  0
 21 45  1  0  0  0  0
 21 46  1  0  0  0  0
 22 47  1  0  0  0  0
 22 48  1  0  0  0  0
 23 49  1  0  0  0  0
 23 50  1  0  0  0  0
 23 51  1  0  0  0  0
 24 52  1  0  0  0  0
 24 53  1  0  0  0  0
 24 54  1  0  0  0  0
 25 55  1  0  0  0  0
M  END
> <PUBCHEM_COMPOUND_CID>
10521953

> <PUBCHEM_CONFORMER_RMSD>
0.6

> <PUBCHEM_CONFORMER_DIVERSEORDER>
1
2

> <PUBCHEM_MMFF94_PARTIAL_CHARGES>
14
1 -0.56
13 0.28
15 0.34
16 0.45
2 -0.56
22 0.28
25 0.56
3 -0.68
4 -0.57
5 -0.68
56 0.4
57 0.4
7 0.28
8 0.06

> <PUBCHEM_EFFECTIVE_ROTOR_COUNT>
2.6

> <PUBCHEM_PHARMACOPHORE_FEATURES>
12
1 1 acceptor
1 2 acceptor
1 3 acceptor
1 3 donor
1 4 acceptor
1 5 acceptor
1 5 donor
3 10 23 24 hydrophobe
5 1 7 11 13 14 rings
5 2 13 20 22 25 rings
6 6 7 8 9 15 16 rings
6 6 8 10 12 17 18 rings

> <PUBCHEM_HEAVY_ATOM_COUNT>
25

> <PUBCHEM_ATOM_DEF_STEREO_COUNT>
7

> <PUBCHEM_ATOM_UDEF_STEREO_COUNT>
0

> <PUBCHEM_BOND_DEF_STEREO_COUNT>
0

> <PUBCHEM_BOND_UDEF_STEREO_COUNT>
0

> <PUBCHEM_ISOTOPIC_ATOM_COUNT>
0

> <PUBCHEM_COMPONENT_COUNT>
1

> <PUBCHEM_CACTVS_TAUTO_COUNT>
5

> <PUBCHEM_CONFORMER_ID>
00A08D6100000001

> <PUBCHEM_MMFF94_ENERGY>
95.1607

> <PUBCHEM_FEATURE_SELFOVERLAP>
60.988

> <PUBCHEM_SHAPE_FINGERPRINT>
10498660 4 18413101771116386045
10863032 1 17313382275839969161
10948715 1 18114465561200618489
11578080 2 16915662707645357488
11640471 11 18187357714692232836
12035759 4 18341894030762544219
12173636 292 18271519815071280701
12592029 89 18266183837875788603
12788726 201 18266735964374480175
13134695 92 17172063042791314274
13140716 1 18199444693487777713
13583140 156 17098050534338119673
13994607 96 17460615841921821436
14142880 1 17531809198155537972
14181834 199 17480567257628475522
14787075 74 17390235067530478139
14790565 3 18342462552017172553
14955137 171 17898001331644891554
15475509 35 11525368474113365893
15534591 1 18186527626278486974
15848702 105 18260819432312752631
16752209 62 18342442756022067399
16945 1 18127386996328397353
17492 54 18264197166630467605
17980427 23 17753013212676865312
18186145 218 18411131411919595060
18981168 100 17753640986170822667
19591789 44 18342171215673776035
19765921 60 18040989670019178328
19868273 293 18413388717970914074
20600515 1 17844785088555108672
20645476 183 18338509734083422359
20691752 17 17615373263447087823
20775530 9 13612798991025640804
20871999 31 18200877399634683823
20905425 154 17405109286389514385
21475661 188 15576664004113506261
21524375 3 18189341182039280784
21756936 100 17459487700574741868
22149856 69 17769363930742812065
22907989 373 18131637810959869349
22956985 138 12777172727708877984
23227448 37 17894636976076372501
2334 1 17982138383568310025
23352939 185 17767412640276843651
23557571 272 17988068019696161368
23559900 14 17989193842837314506
23566358 2 17912908758964505169
238 59 18196097642226488678
26353 1 17480848053942123879
2637199 183 18266193733416959580
2748010 2 17911765224253826073
3286 77 16010433423087656579
350125 39 18055353535553761691
394222 165 17822273700446485282
469060 322 17170129285058173097
474 4 17968657090621093329
484985 159 12317807248526791148
81228 2 17983863555703603130
9981440 41 18045781449895572208

> <PUBCHEM_SHAPE_MULTIPOLES>
485.14
6.43
3.4
1.87
2.23
0.95
-0.31
-3.9
2.64
-0.24
0.75
-0.03
-0.1
-1.3

> <PUBCHEM_SHAPE_SELFOVERLAP>
1032.855

> <PUBCHEM_SHAPE_VOLUME>
270.2

> <PUBCHEM_COORDINATE_TYPE>
2
5
10

$$$$
