5280678
  -OEChem-08292001513D

 30 29  0     1  0  0  0  0  0999 V2000
   -2.2327   -0.6270   -1.3454 O   0  0  0  0  0  0  0  0  0  0  0  0
    4.4640   -0.8641    0.4733 O   0  0  0  0  0  0  0  0  0  0  0  0
   -2.2070   -0.5498    0.0818 C   0  0  2  0  0  0  0  0  0  0  0  0
   -0.7364   -0.4493    0.5469 C   0  0  0  0  0  0  0  0  0  0  0  0
   -0.0032    0.7988    0.0344 C   0  0  0  0  0  0  0  0  0  0  0  0
   -2.8376   -1.8391    0.6226 C   0  0  0  0  0  0  0  0  0  0  0  0
    1.4246    0.8183    0.5056 C   0  0  0  0  0  0  0  0  0  0  0  0
   -3.0199    0.6323    0.5662 C   0  0  0  0  0  0  0  0  0  0  0  0
    2.5103    0.3605   -0.1469 C   0  0  0  0  0  0  0  0  0  0  0  0
    3.9203    0.4452    0.3718 C   0  0  0  0  0  0  0  0  0  0  0  0
    2.3693   -0.2586   -1.5133 C   0  0  0  0  0  0  0  0  0  0  0  0
   -3.6518    1.5327   -0.1970 C   0  0  0  0  0  0  0  0  0  0  0  0
   -0.6923   -0.4705    1.6445 H   0  0  0  0  0  0  0  0  0  0  0  0
   -0.1932   -1.3365    0.1926 H   0  0  0  0  0  0  0  0  0  0  0  0
   -0.0726    0.8789   -1.0547 H   0  0  0  0  0  0  0  0  0  0  0  0
   -0.4851    1.7045    0.4224 H   0  0  0  0  0  0  0  0  0  0  0  0
   -3.8673   -1.9531    0.2629 H   0  0  0  0  0  0  0  0  0  0  0  0
   -2.2898   -2.7202    0.2684 H   0  0  0  0  0  0  0  0  0  0  0  0
   -2.8502   -1.8610    1.7179 H   0  0  0  0  0  0  0  0  0  0  0  0
    1.5740    1.2552    1.4920 H   0  0  0  0  0  0  0  0  0  0  0  0
   -3.0870    0.7589    1.6456 H   0  0  0  0  0  0  0  0  0  0  0  0
   -1.6979   -1.3930   -1.6158 H   0  0  0  0  0  0  0  0  0  0  0  0
    4.5444    1.0275   -0.3134 H   0  0  0  0  0  0  0  0  0  0  0  0
    3.9703    0.9182    1.3580 H   0  0  0  0  0  0  0  0  0  0  0  0
    1.3405   -0.4537   -1.8220 H   0  0  0  0  0  0  0  0  0  0  0  0
    2.8805   -1.2269   -1.5462 H   0  0  0  0  0  0  0  0  0  0  0  0
    2.8281    0.3920   -2.2654 H   0  0  0  0  0  0  0  0  0  0  0  0
   -4.2045    2.3450    0.2630 H   0  0  0  0  0  0  0  0  0  0  0  0
   -3.6348    1.4872   -1.2796 H   0  0  0  0  0  0  0  0  0  0  0  0
    3.9213   -1.3604    1.1098 H   0  0  0  0  0  0  0  0  0  0  0  0
  1  3  1  0  0  0  0
  1 22  1  0  0  0  0
  2 10  1  0  0  0  0
  2 30  1  0  0  0  0
  3  4  1  0  0  0  0
  3  6  1  0  0  0  0
  3  8  1  0  0  0  0
  4  5  1  0  0  0  0
  4 13  1  0  0  0  0
  4 14  1  0  0  0  0
  5  7  1  0  0  0  0
  5 15  1  0  0  0  0
  5 16  1  0  0  0  0
  6 17  1  0  0  0  0
  6 18  1  0  0  0  0
  6 19  1  0  0  0  0
  7  9  2  0  0  0  0
  7 20  1  0  0  0  0
  8 12  2  0  0  0  0
  8 21  1  0  0  0  0
  9 10  1  0  0  0  0
  9 11  1  0  0  0  0
 10 23  1  0  0  0  0
 10 24  1  0  0  0  0
 11 25  1  0  0  0  0
 11 26  1  0  0  0  0
 11 27  1  0  0  0  0
 12 28  1  0  0  0  0
 12 29  1  0  0  0  0
M  END
> <PUBCHEM_COMPOUND_CID>
5280678

> <PUBCHEM_CONFORMER_RMSD>
0.6

> <PUBCHEM_CONFORMER_DIVERSEORDER>
1
115
105
108
12
97
53
30
100
106
68
58
25
45
6
95
123
73
37
80
99
54
122
132
55
102
32
70
98
103
36
88
81
38
119
39
41
85
86
75
24
92
117
57
109
20
34
87
62
48
79
110
11
83
74
3
90
113
77
93
26
89
127
28
91
15
129
23
49
84
21
118
44
124
50
101
94
16
128
31
120
69
9
130
22
125
82
71
67
76
35
10
116
51
17
78
42
104
14
61
13
107
60
43
18
64
2
66
72
40
27
59
47
63
7
29
126
114
65
33
4
8
56
112
131
96
19
46
111
52
5
121

> <PUBCHEM_MMFF94_PARTIAL_CHARGES>
16
1 -0.68
10 0.42
11 0.14
12 -0.3
2 -0.68
20 0.15
21 0.15
22 0.4
28 0.15
29 0.15
3 0.42
30 0.4
5 0.14
7 -0.29
8 -0.29
9 -0.28

> <PUBCHEM_EFFECTIVE_ROTOR_COUNT>
5

> <PUBCHEM_PHARMACOPHORE_FEATURES>
6
1 1 acceptor
1 1 donor
1 11 hydrophobe
1 12 hydrophobe
1 2 acceptor
1 2 donor

> <PUBCHEM_HEAVY_ATOM_COUNT>
12

> <PUBCHEM_ATOM_DEF_STEREO_COUNT>
0

> <PUBCHEM_ATOM_UDEF_STEREO_COUNT>
1

> <PUBCHEM_BOND_DEF_STEREO_COUNT>
1

> <PUBCHEM_BOND_UDEF_STEREO_COUNT>
0

> <PUBCHEM_ISOTOPIC_ATOM_COUNT>
0

> <PUBCHEM_COMPONENT_COUNT>
1

> <PUBCHEM_CACTVS_TAUTO_COUNT>
1

> <PUBCHEM_CONFORMER_ID>
005093A600000001

> <PUBCHEM_MMFF94_ENERGY>
16.9713

> <PUBCHEM_FEATURE_SELFOVERLAP>
30.446

> <PUBCHEM_SHAPE_FINGERPRINT>
10922523 26 18201728352983872301
11062470 55 17847061077729897864
124424 183 18201716241054817216
12932764 1 17488467544936683385
13296908 3 17846232058736537566
13675066 3 17895198783309945904
14325111 11 18409168848130599008
14577589 140 18131070445858967919
15375358 24 17775565312643011764
17834072 8 18189053105692587382
190213 19 17022904566197630024
19422 9 17676496089243618506
1986462 14 18260548943756994067
200 152 15267336306095537889
20201158 50 17775570818759404204
20279233 1 17561368374267263748
20281475 54 18186800296872804298
20645464 45 18343025488757949019
20645477 56 18412549795142133065
20645477 70 17131559327720220702
22169311 21 17060340716815033190
22485316 2 18409727366031088344
23402539 116 18341884160965037188
23559900 14 18412261719264535416
23598291 2 17313394464719953926
3248919 1 18337110162996891597
42627469 27 17894352159382860457
58051976 100 18040156231620800267
581208 293 16559033775104405316
6430166 295 18262236612585965921
81228 2 17843704187205502200

> <PUBCHEM_SHAPE_MULTIPOLES>
235.22
7.87
1.4
1.05
4.42
0.21
0.39
0.06
-0.57
-1.42
-0.15
0.21
0.14
0.21

> <PUBCHEM_SHAPE_SELFOVERLAP>
441.086

> <PUBCHEM_SHAPE_VOLUME>
147.3

> <PUBCHEM_COORDINATE_TYPE>
2
5
10

$$$$
