15726752
  -OEChem-08282005553D

 54 57  0     1  0  0  0  0  0999 V2000
   -1.2904    0.0746   -0.3959 O   0  0  0  0  0  0  0  0  0  0  0  0
    1.1347    3.6013   -0.5872 O   0  0  0  0  0  0  0  0  0  0  0  0
    3.0514    1.8237   -0.6802 O   0  0  0  0  0  0  0  0  0  0  0  0
   -4.7544   -0.2940   -1.0829 O   0  0  0  0  0  0  0  0  0  0  0  0
    0.7983   -0.3725    0.9035 C   0  0  2  0  0  0  0  0  0  0  0  0
   -0.5699    0.4828    0.8005 C   0  0  1  0  0  0  0  0  0  0  0  0
    1.6369   -0.1420   -0.4079 C   0  0  2  0  0  0  0  0  0  0  0  0
   -0.2238    2.0087    0.6352 C   0  0  1  0  0  0  0  0  0  0  0  0
    2.8566   -1.0944   -0.6689 C   0  0  0  0  0  0  0  0  0  0  0  0
    0.4900   -1.8920    1.0249 C   0  0  0  0  0  0  0  0  0  0  0  0
   -1.5452    0.2112    1.9706 C   0  0  0  0  0  0  0  0  0  0  0  0
    0.6977    2.2494   -0.5792 C   0  0  2  0  0  0  0  0  0  0  0  0
    2.3869   -2.5597   -0.4911 C   0  0  0  0  0  0  0  0  0  0  0  0
    1.9230    1.3557   -0.5482 C   0  0  0  0  0  0  0  0  0  0  0  0
   -2.5719   -0.4606   -0.0625 C   0  0  1  0  0  0  0  0  0  0  0  0
    1.6939   -2.8120    0.8402 C   0  0  0  0  0  0  0  0  0  0  0  0
    1.5904    0.0725    2.1666 C   0  0  0  0  0  0  0  0  0  0  0  0
   -2.5636   -0.7634    1.4227 C   0  0  0  0  0  0  0  0  0  0  0  0
   -1.4422    2.9399    0.4710 C   0  0  0  0  0  0  0  0  0  0  0  0
    4.0994   -0.8579    0.2141 C   0  0  0  0  0  0  0  0  0  0  0  0
    3.3181   -0.9480   -2.1426 C   0  0  0  0  0  0  0  0  0  0  0  0
   -3.6913    0.4945   -0.5033 C   0  0  0  0  0  0  0  0  0  0  0  0
   -2.9042   -1.6437   -0.8976 C   0  0  0  0  0  0  0  0  0  0  0  0
   -4.1203   -1.4744   -1.4016 C   0  0  0  0  0  0  0  0  0  0  0  0
    0.9562   -0.3540   -1.2477 H   0  0  0  0  0  0  0  0  0  0  0  0
    0.2902    2.3488    1.5437 H   0  0  0  0  0  0  0  0  0  0  0  0
   -0.2453   -2.1801    0.2672 H   0  0  0  0  0  0  0  0  0  0  0  0
    0.0435   -2.1124    2.0013 H   0  0  0  0  0  0  0  0  0  0  0  0
   -2.0665    1.1128    2.2977 H   0  0  0  0  0  0  0  0  0  0  0  0
   -1.0742   -0.1877    2.8715 H   0  0  0  0  0  0  0  0  0  0  0  0
    0.1668    2.0616   -1.5200 H   0  0  0  0  0  0  0  0  0  0  0  0
    3.2355   -3.2487   -0.5905 H   0  0  0  0  0  0  0  0  0  0  0  0
    1.6881   -2.8217   -1.2975 H   0  0  0  0  0  0  0  0  0  0  0  0
    2.3989   -2.7072    1.6703 H   0  0  0  0  0  0  0  0  0  0  0  0
    1.3501   -3.8533    0.8692 H   0  0  0  0  0  0  0  0  0  0  0  0
    0.9409    0.2214    3.0327 H   0  0  0  0  0  0  0  0  0  0  0  0
    2.3222   -0.6692    2.4880 H   0  0  0  0  0  0  0  0  0  0  0  0
    2.1286    1.0126    2.0140 H   0  0  0  0  0  0  0  0  0  0  0  0
   -2.2364   -1.7906    1.6199 H   0  0  0  0  0  0  0  0  0  0  0  0
   -3.5437   -0.6518    1.8989 H   0  0  0  0  0  0  0  0  0  0  0  0
   -1.1268    3.9897    0.4796 H   0  0  0  0  0  0  0  0  0  0  0  0
   -1.9515    2.7682   -0.4805 H   0  0  0  0  0  0  0  0  0  0  0  0
   -2.1715    2.8396    1.2760 H   0  0  0  0  0  0  0  0  0  0  0  0
    4.5065    0.1503    0.1096 H   0  0  0  0  0  0  0  0  0  0  0  0
    4.9057   -1.5455   -0.0715 H   0  0  0  0  0  0  0  0  0  0  0  0
    3.9176   -1.0327    1.2730 H   0  0  0  0  0  0  0  0  0  0  0  0
    3.7395    0.0414   -2.3445 H   0  0  0  0  0  0  0  0  0  0  0  0
    2.4863   -1.1042   -2.8388 H   0  0  0  0  0  0  0  0  0  0  0  0
    4.0914   -1.6856   -2.3879 H   0  0  0  0  0  0  0  0  0  0  0  0
   -4.1045    1.0783    0.3262 H   0  0  0  0  0  0  0  0  0  0  0  0
   -3.3509    1.1982   -1.2726 H   0  0  0  0  0  0  0  0  0  0  0  0
   -2.2912   -2.5216   -1.0306 H   0  0  0  0  0  0  0  0  0  0  0  0
    1.6150    3.7487   -1.4200 H   0  0  0  0  0  0  0  0  0  0  0  0
   -4.6974   -2.1560   -2.0001 H   0  0  0  0  0  0  0  0  0  0  0  0
  1  6  1  0  0  0  0
  1 15  1  0  0  0  0
  2 12  1  0  0  0  0
  2 53  1  0  0  0  0
  3 14  2  0  0  0  0
  4 22  1  0  0  0  0
  4 24  1  0  0  0  0
  5  6  1  0  0  0  0
  5  7  1  0  0  0  0
  5 10  1  0  0  0  0
  5 17  1  0  0  0  0
  6  8  1  0  0  0  0
  6 11  1  0  0  0  0
  7  9  1  0  0  0  0
  7 14  1  0  0  0  0
  7 25  1  0  0  0  0
  8 12  1  0  0  0  0
  8 19  1  0  0  0  0
  8 26  1  0  0  0  0
  9 13  1  0  0  0  0
  9 20  1  0  0  0  0
  9 21  1  0  0  0  0
 10 16  1  0  0  0  0
 10 27  1  0  0  0  0
 10 28  1  0  0  0  0
 11 18  1  0  0  0  0
 11 29  1  0  0  0  0
 11 30  1  0  0  0  0
 12 14  1  0  0  0  0
 12 31  1  0  0  0  0
 13 16  1  0  0  0  0
 13 32  1  0  0  0  0
 13 33  1  0  0  0  0
 15 18  1  0  0  0  0
 15 22  1  0  0  0  0
 15 23  1  0  0  0  0
 16 34  1  0  0  0  0
 16 35  1  0  0  0  0
 17 36  1  0  0  0  0
 17 37  1  0  0  0  0
 17 38  1  0  0  0  0
 18 39  1  0  0  0  0
 18 40  1  0  0  0  0
 19 41  1  0  0  0  0
 19 42  1  0  0  0  0
 19 43  1  0  0  0  0
 20 44  1  0  0  0  0
 20 45  1  0  0  0  0
 20 46  1  0  0  0  0
 21 47  1  0  0  0  0
 21 48  1  0  0  0  0
 21 49  1  0  0  0  0
 22 50  1  0  0  0  0
 22 51  1  0  0  0  0
 23 24  2  0  0  0  0
 23 52  1  0  0  0  0
 24 54  1  0  0  0  0
M  END
> <PUBCHEM_COMPOUND_CID>
15726752

> <PUBCHEM_CONFORMER_RMSD>
0.6

> <PUBCHEM_CONFORMER_DIVERSEORDER>
1

> <PUBCHEM_MMFF94_PARTIAL_CHARGES>
15
1 -0.56
12 0.34
14 0.45
15 0.42
2 -0.68
22 0.28
23 -0.29
24 -0.07
3 -0.57
4 -0.36
52 0.15
53 0.4
54 0.15
6 0.28
7 0.06

> <PUBCHEM_EFFECTIVE_ROTOR_COUNT>
2.2

> <PUBCHEM_PHARMACOPHORE_FEATURES>
10
1 1 acceptor
1 2 acceptor
1 2 donor
1 3 acceptor
1 4 acceptor
3 9 20 21 hydrophobe
5 1 6 11 15 18 rings
5 4 15 22 23 24 rings
6 5 6 7 8 12 14 rings
6 5 7 9 10 13 16 rings

> <PUBCHEM_HEAVY_ATOM_COUNT>
24

> <PUBCHEM_ATOM_DEF_STEREO_COUNT>
6

> <PUBCHEM_ATOM_UDEF_STEREO_COUNT>
0

> <PUBCHEM_BOND_DEF_STEREO_COUNT>
0

> <PUBCHEM_BOND_UDEF_STEREO_COUNT>
0

> <PUBCHEM_ISOTOPIC_ATOM_COUNT>
0

> <PUBCHEM_COMPONENT_COUNT>
1

> <PUBCHEM_CACTVS_TAUTO_COUNT>
5

> <PUBCHEM_CONFORMER_ID>
00EFF8A000000001

> <PUBCHEM_MMFF94_ENERGY>
96.4266

> <PUBCHEM_FEATURE_SELFOVERLAP>
50.795

> <PUBCHEM_SHAPE_FINGERPRINT>
11221954 11 13336748991764489270
11578080 2 17845357874015513784
116883 192 18341609261794272877
12035759 4 18337673018614058501
12400797 292 18341333391459596687
12553582 1 18338254673160824274
12596599 1 18131084735062629302
13004483 165 18123170330201784511
13083527 12 18267845273239091266
13134695 92 17098019880723965938
13140716 1 18191887805857396170
13681431 1 18337386144863820705
13911987 19 18115325465657330406
14787075 74 17917710232307208082
14863182 85 17557408070775897943
15163728 17 15141546695795210542
16752209 62 18055064364237885841
16945 1 18264227862666942274
17349148 13 17604990313184467538
17357779 13 18058995190957821069
17492 54 18335994176460098462
1813 80 18200888304736152303
18981168 100 12469500240380329061
192875 21 18187365398657724770
19862831 5 17967255264940677439
200 152 18410292488821541622
20600515 1 18119215515735847209
20691752 17 18334301933385655976
20775530 9 16843343197828077847
21634736 98 18413112774701012918
21731516 1 18271815587793451635
22112679 90 17899971630168372928
22182313 1 17974873940392903834
2334 1 17976842091839302666
23402539 116 18409726236539416610
23419403 2 10998096757567340489
23557571 272 17916861310124232888
23559900 14 16845567595797262819
23598291 2 18129963211769295293
238 59 17903627824379899255
2748010 2 17902819657626886322
3009799 131 17894901919982150722
3060560 45 18261381308245074150
3323516 105 18115313400925520203
34934 24 18046358435142746344
4280585 95 18341331098554086182
46194498 28 18188196724037662749
5262128 65 18341345447453739781
70251023 43 18342747277671942991
7471813 234 18190449481413315478
7832392 63 17975710389336658568
81228 2 18192705653303131633
90525 40 17690575086640125907

> <PUBCHEM_SHAPE_MULTIPOLES>
470.43
6.59
3.15
1.7
3.41
1.79
-0.32
-3.16
3.12
-0.97
0.37
-0.08
-0.38
-0.77

> <PUBCHEM_SHAPE_SELFOVERLAP>
1008.444

> <PUBCHEM_SHAPE_VOLUME>
259.5

> <PUBCHEM_COORDINATE_TYPE>
2
5
10

$$$$
