70698238
  -OEChem-08282009513D

 72 75  0     1  0  0  0  0  0999 V2000
   -4.1427    3.0076   -0.6162 O   0  0  0  0  0  0  0  0  0  0  0  0
   -7.9199   -0.2053    0.6061 O   0  0  0  0  0  0  0  0  0  0  0  0
    0.5594   -0.5480    0.0586 C   0  0  1  0  0  0  0  0  0  0  0  0
   -0.2179    0.5515    0.8112 C   0  0  2  0  0  0  0  0  0  0  0  0
    1.9396   -0.4151    0.7482 C   0  0  2  0  0  0  0  0  0  0  0  0
   -2.4325   -0.6496    0.3951 C   0  0  2  0  0  0  0  0  0  0  0  0
   -3.8604   -0.5474   -0.2735 C   0  0  2  0  0  0  0  0  0  0  0  0
   -0.1443   -1.8873    0.3294 C   0  0  0  0  0  0  0  0  0  0  0  0
   -1.6532    0.6736    0.3580 C   0  0  0  0  0  0  0  0  0  0  0  0
    0.7456    1.7430    0.7834 C   0  0  0  0  0  0  0  0  0  0  0  0
   -1.6061   -1.8556   -0.1416 C   0  0  0  0  0  0  0  0  0  0  0  0
    2.1441    1.1094    0.8839 C   0  0  0  0  0  0  0  0  0  0  0  0
   -4.5236    0.7658    0.2269 C   0  0  1  0  0  0  0  0  0  0  0  0
    0.6575   -0.2899   -1.4655 C   0  0  0  0  0  0  0  0  0  0  0  0
    3.1077   -1.1110    0.0641 C   0  0  2  0  0  0  0  0  0  0  0  0
   -4.7452   -1.7372    0.1918 C   0  0  0  0  0  0  0  0  0  0  0  0
   -2.2103    1.8544    0.0471 C   0  0  0  0  0  0  0  0  0  0  0  0
   -3.7640   -0.5643   -1.8229 C   0  0  0  0  0  0  0  0  0  0  0  0
   -3.6722    1.9589   -0.1821 C   0  0  0  0  0  0  0  0  0  0  0  0
   -5.9796    0.9338   -0.2127 C   0  0  0  0  0  0  0  0  0  0  0  0
   -6.2002   -1.6307   -0.2541 C   0  0  0  0  0  0  0  0  0  0  0  0
   -6.7881   -0.2948    0.1314 C   0  0  0  0  0  0  0  0  0  0  0  0
    3.1069   -2.6086    0.3800 C   0  0  0  0  0  0  0  0  0  0  0  0
    4.4159   -0.4947    0.4969 C   0  0  0  0  0  0  0  0  0  0  0  0
    5.2786    0.0941   -0.3456 C   0  0  0  0  0  0  0  0  0  0  0  0
    6.5884    0.7149    0.0890 C   0  0  1  0  0  0  0  0  0  0  0  0
    7.7989    0.0234   -0.6007 C   0  0  0  0  0  0  0  0  0  0  0  0
    6.5239    2.2178   -0.2076 C   0  0  0  0  0  0  0  0  0  0  0  0
    9.1304    0.6683   -0.1889 C   0  0  0  0  0  0  0  0  0  0  0  0
    7.8634   -1.4768   -0.2895 C   0  0  0  0  0  0  0  0  0  0  0  0
   -0.2885    0.2581    1.8727 H   0  0  0  0  0  0  0  0  0  0  0  0
    1.8534   -0.8026    1.7756 H   0  0  0  0  0  0  0  0  0  0  0  0
   -2.5883   -0.8473    1.4674 H   0  0  0  0  0  0  0  0  0  0  0  0
   -0.1199   -2.1251    1.4003 H   0  0  0  0  0  0  0  0  0  0  0  0
    0.3489   -2.7117   -0.1900 H   0  0  0  0  0  0  0  0  0  0  0  0
    0.5603    2.4358    1.6111 H   0  0  0  0  0  0  0  0  0  0  0  0
    0.6640    2.3128   -0.1494 H   0  0  0  0  0  0  0  0  0  0  0  0
   -1.6007   -1.8666   -1.2356 H   0  0  0  0  0  0  0  0  0  0  0  0
   -2.0838   -2.7922    0.1688 H   0  0  0  0  0  0  0  0  0  0  0  0
    2.7657    1.5339    0.0878 H   0  0  0  0  0  0  0  0  0  0  0  0
    2.6126    1.3577    1.8431 H   0  0  0  0  0  0  0  0  0  0  0  0
   -4.5255    0.7591    1.3280 H   0  0  0  0  0  0  0  0  0  0  0  0
    1.0598   -1.1650   -1.9879 H   0  0  0  0  0  0  0  0  0  0  0  0
   -0.3186   -0.0784   -1.9131 H   0  0  0  0  0  0  0  0  0  0  0  0
    1.3013    0.5626   -1.7051 H   0  0  0  0  0  0  0  0  0  0  0  0
    3.0450   -1.0078   -1.0241 H   0  0  0  0  0  0  0  0  0  0  0  0
   -4.3400   -2.6873   -0.1749 H   0  0  0  0  0  0  0  0  0  0  0  0
   -4.7244   -1.7923    1.2886 H   0  0  0  0  0  0  0  0  0  0  0  0
   -1.6504    2.7817    0.0271 H   0  0  0  0  0  0  0  0  0  0  0  0
   -3.0029    0.1286   -2.1954 H   0  0  0  0  0  0  0  0  0  0  0  0
   -4.7075   -0.2914   -2.3038 H   0  0  0  0  0  0  0  0  0  0  0  0
   -3.5122   -1.5628   -2.1962 H   0  0  0  0  0  0  0  0  0  0  0  0
   -6.0729    1.1238   -1.2868 H   0  0  0  0  0  0  0  0  0  0  0  0
   -6.4231    1.7940    0.3034 H   0  0  0  0  0  0  0  0  0  0  0  0
   -6.7857   -2.4242    0.2232 H   0  0  0  0  0  0  0  0  0  0  0  0
   -6.2986   -1.7515   -1.3375 H   0  0  0  0  0  0  0  0  0  0  0  0
    2.9472   -2.8063    1.4456 H   0  0  0  0  0  0  0  0  0  0  0  0
    4.0661   -3.0641    0.1044 H   0  0  0  0  0  0  0  0  0  0  0  0
    2.3463   -3.1417   -0.1921 H   0  0  0  0  0  0  0  0  0  0  0  0
    4.6584   -0.5450    1.5563 H   0  0  0  0  0  0  0  0  0  0  0  0
    5.0400    0.1430   -1.4058 H   0  0  0  0  0  0  0  0  0  0  0  0
    6.6998    0.5996    1.1759 H   0  0  0  0  0  0  0  0  0  0  0  0
    7.7001    0.1326   -1.6893 H   0  0  0  0  0  0  0  0  0  0  0  0
    6.5431    2.4147   -1.2854 H   0  0  0  0  0  0  0  0  0  0  0  0
    7.3628    2.7501    0.2515 H   0  0  0  0  0  0  0  0  0  0  0  0
    5.6070    2.6611    0.1985 H   0  0  0  0  0  0  0  0  0  0  0  0
    9.2024    1.7002   -0.5451 H   0  0  0  0  0  0  0  0  0  0  0  0
    9.9769    0.1235   -0.6214 H   0  0  0  0  0  0  0  0  0  0  0  0
    9.2503    0.6692    0.8997 H   0  0  0  0  0  0  0  0  0  0  0  0
    8.7439   -1.9335   -0.7546 H   0  0  0  0  0  0  0  0  0  0  0  0
    6.9865   -2.0061   -0.6754 H   0  0  0  0  0  0  0  0  0  0  0  0
    7.9219   -1.6543    0.7898 H   0  0  0  0  0  0  0  0  0  0  0  0
  1 19  2  0  0  0  0
  2 22  2  0  0  0  0
  3  4  1  0  0  0  0
  3  5  1  0  0  0  0
  3  8  1  0  0  0  0
  3 14  1  0  0  0  0
  4  9  1  0  0  0  0
  4 10  1  0  0  0  0
  4 31  1  0  0  0  0
  5 12  1  0  0  0  0
  5 15  1  0  0  0  0
  5 32  1  0  0  0  0
  6  7  1  0  0  0  0
  6  9  1  0  0  0  0
  6 11  1  0  0  0  0
  6 33  1  0  0  0  0
  7 13  1  0  0  0  0
  7 16  1  0  0  0  0
  7 18  1  0  0  0  0
  8 11  1  0  0  0  0
  8 34  1  0  0  0  0
  8 35  1  0  0  0  0
  9 17  2  0  0  0  0
 10 12  1  0  0  0  0
 10 36  1  0  0  0  0
 10 37  1  0  0  0  0
 11 38  1  0  0  0  0
 11 39  1  0  0  0  0
 12 40  1  0  0  0  0
 12 41  1  0  0  0  0
 13 19  1  0  0  0  0
 13 20  1  0  0  0  0
 13 42  1  0  0  0  0
 14 43  1  0  0  0  0
 14 44  1  0  0  0  0
 14 45  1  0  0  0  0
 15 23  1  0  0  0  0
 15 24  1  0  0  0  0
 15 46  1  0  0  0  0
 16 21  1  0  0  0  0
 16 47  1  0  0  0  0
 16 48  1  0  0  0  0
 17 19  1  0  0  0  0
 17 49  1  0  0  0  0
 18 50  1  0  0  0  0
 18 51  1  0  0  0  0
 18 52  1  0  0  0  0
 20 22  1  0  0  0  0
 20 53  1  0  0  0  0
 20 54  1  0  0  0  0
 21 22  1  0  0  0  0
 21 55  1  0  0  0  0
 21 56  1  0  0  0  0
 23 57  1  0  0  0  0
 23 58  1  0  0  0  0
 23 59  1  0  0  0  0
 24 25  2  0  0  0  0
 24 60  1  0  0  0  0
 25 26  1  0  0  0  0
 25 61  1  0  0  0  0
 26 27  1  0  0  0  0
 26 28  1  0  0  0  0
 26 62  1  0  0  0  0
 27 29  1  0  0  0  0
 27 30  1  0  0  0  0
 27 63  1  0  0  0  0
 28 64  1  0  0  0  0
 28 65  1  0  0  0  0
 28 66  1  0  0  0  0
 29 67  1  0  0  0  0
 29 68  1  0  0  0  0
 29 69  1  0  0  0  0
 30 70  1  0  0  0  0
 30 71  1  0  0  0  0
 30 72  1  0  0  0  0
M  END
> <PUBCHEM_COMPOUND_CID>
70698238

> <PUBCHEM_CONFORMER_RMSD>
0.8

> <PUBCHEM_CONFORMER_DIVERSEORDER>
1
21
25
20
16
13
24
7
10
12
5
22
18
3
8
9
23
19
11
14
6
2
17
15
4

> <PUBCHEM_MMFF94_PARTIAL_CHARGES>
18
1 -0.57
13 0.06
15 0.14
17 -0.14
19 0.49
2 -0.57
20 0.06
21 0.06
22 0.45
24 -0.29
25 -0.29
26 0.14
4 0.14
49 0.15
6 0.14
60 0.15
61 0.15
9 -0.28

> <PUBCHEM_EFFECTIVE_ROTOR_COUNT>
5.6

> <PUBCHEM_PHARMACOPHORE_FEATURES>
9
1 1 acceptor
1 2 acceptor
1 23 hydrophobe
1 28 hydrophobe
3 27 29 30 hydrophobe
5 3 4 5 10 12 rings
6 3 4 6 8 9 11 rings
6 6 7 9 13 17 19 rings
6 7 13 16 20 21 22 rings

> <PUBCHEM_HEAVY_ATOM_COUNT>
30

> <PUBCHEM_ATOM_DEF_STEREO_COUNT>
8

> <PUBCHEM_ATOM_UDEF_STEREO_COUNT>
0

> <PUBCHEM_BOND_DEF_STEREO_COUNT>
1

> <PUBCHEM_BOND_UDEF_STEREO_COUNT>
0

> <PUBCHEM_ISOTOPIC_ATOM_COUNT>
0

> <PUBCHEM_COMPONENT_COUNT>
1

> <PUBCHEM_CACTVS_TAUTO_COUNT>
34

> <PUBCHEM_CONFORMER_ID>
0436C4FE00000001

> <PUBCHEM_MMFF94_ENERGY>
88.3288

> <PUBCHEM_FEATURE_SELFOVERLAP>
45.765

> <PUBCHEM_SHAPE_FINGERPRINT>
10 15 18113337505320524339
10050765 1 18122344584474462258
10076449 9 17988928894451380656
10299344 5 18272653450113665154
10411042 1 18049442845265605571
10595046 47 18335137545037706202
106641 1 17095245838962943251
10669705 176 18335419015624575556
11007060 377 18335144193256762283
11135926 11 18410845556303628902
11315181 36 17676210190571899331
11524674 6 15985101937814613647
11578080 2 17170657901702270487
11719270 70 18273211964210570630
12082328 90 18410855443307105998
12236239 1 17676766487979623435
12403259 415 18130494289155769145
12788726 201 17774440456682358632
14123256 10 18409449193989749106
14251764 18 18187361030269971946
14251764 46 18113618998067876098
14856354 85 18335985358834717479
14933364 13 18411982464358538180
15131766 46 14709492627077888062
15183329 4 18408321082201084130
15347591 1 18117835504210430699
1577012 14 18187642462813662584
15840311 113 18114185276294203628
15849732 13 18113057146882329878
16087824 20 18340770343845963041
18335252 98 18335145293364878299
18608769 82 18409731802690620347
18681886 176 18411412946941510624
19611394 137 17896615057587068851
20105231 36 18202009845162110007
2026 5 15840168594104877918
21150785 3 17894349990582410616
21267235 1 18413109485331018577
21315763 28 18408885140340534998
21792961 116 18131633344510171330
23559900 14 18269547398274042296
3004659 81 18408601479104359608
335352 9 18412538813611974485
34797466 226 18202570579360169308
350125 39 18411980265388303185
4073 2 18113904896080810586
4098825 35 18335983069590391426
4325135 7 18409449193673296612
44317340 157 17703503394232815824
5104073 3 18198613355159616067
5265222 85 18201155572008611478

> <PUBCHEM_SHAPE_MULTIPOLES>
605.65
22.6
2.34
0.96
27.48
0.37
-0.24
1.27
-2.64
-0.51
0.01
-0.24
-0.02
0.02

> <PUBCHEM_SHAPE_SELFOVERLAP>
1270.449

> <PUBCHEM_SHAPE_VOLUME>
341.3

> <PUBCHEM_COORDINATE_TYPE>
2
5
10

$$$$
