102054462
  -OEChem-08282006223D

 71 74  0     1  0  0  0  0  0999 V2000
   -1.8164   -0.7865   -0.1213 O   0  0  0  0  0  0  0  0  0  0  0  0
   -1.6717    1.7872    1.0384 O   0  0  0  0  0  0  0  0  0  0  0  0
    4.8219   -0.7121   -0.1007 O   0  0  0  0  0  0  0  0  0  0  0  0
   -2.9020   -3.6551   -0.1211 O   0  0  0  0  0  0  0  0  0  0  0  0
   -0.7252    3.6438   -1.4846 O   0  0  0  0  0  0  0  0  0  0  0  0
   -3.8030   -2.2123    1.5017 O   0  0  0  0  0  0  0  0  0  0  0  0
   -1.9015    4.0809    0.8865 O   0  0  0  0  0  0  0  0  0  0  0  0
    4.8530   -2.4161    1.4588 O   0  0  0  0  0  0  0  0  0  0  0  0
    0.5507   -0.0226   -0.0062 C   0  0  2  0  0  0  0  0  0  0  0  0
   -0.9058    0.1964   -0.6790 C   0  0  2  0  0  0  0  0  0  0  0  0
    1.5128    1.1184   -0.5033 C   0  0  2  0  0  0  0  0  0  0  0  0
    3.0348    0.9804   -0.0853 C   0  0  0  0  0  0  0  0  0  0  0  0
   -1.4839    1.6301   -0.3671 C   0  0  2  0  0  0  0  0  0  0  0  0
    1.1411   -1.4300   -0.3768 C   0  0  0  0  0  0  0  0  0  0  0  0
   -0.9125   -0.0585   -2.2070 C   0  0  0  0  0  0  0  0  0  0  0  0
   -2.4733   -1.5419   -1.1520 C   0  0  2  0  0  0  0  0  0  0  0  0
    0.9452    2.5194   -0.2130 C   0  0  0  0  0  0  0  0  0  0  0  0
    3.4299   -0.5084    0.1379 C   0  0  1  0  0  0  0  0  0  0  0  0
   -2.1717   -0.8557   -2.4693 C   0  0  0  0  0  0  0  0  0  0  0  0
    2.6231   -1.4435   -0.7451 C   0  0  0  0  0  0  0  0  0  0  0  0
    0.4385   -0.0256    1.5486 C   0  0  0  0  0  0  0  0  0  0  0  0
   -0.4476    2.6786   -0.7717 C   0  0  0  0  0  0  0  0  0  0  0  0
    3.3961    1.7595    1.2007 C   0  0  0  0  0  0  0  0  0  0  0  0
    3.8949    1.6007   -1.2222 C   0  0  0  0  0  0  0  0  0  0  0  0
   -3.9557   -1.6715   -0.8343 C   0  0  0  0  0  0  0  0  0  0  0  0
   -2.8401    1.9618   -1.0027 C   0  0  0  0  0  0  0  0  0  0  0  0
   -2.0401   -3.0032   -1.0722 C   0  0  0  0  0  0  0  0  0  0  0  0
   -3.9810   -2.7765    0.2077 C   0  0  1  0  0  0  0  0  0  0  0  0
   -2.1203    3.0127    1.4415 C   0  0  0  0  0  0  0  0  0  0  0  0
    5.4073   -1.7035    0.6330 C   0  0  0  0  0  0  0  0  0  0  0  0
   -2.9382    2.8670    2.6889 C   0  0  0  0  0  0  0  0  0  0  0  0
    6.8604   -1.8024    0.2796 C   0  0  0  0  0  0  0  0  0  0  0  0
   -3.8197   -3.2113    2.5116 C   0  0  0  0  0  0  0  0  0  0  0  0
    1.5029    1.0238   -1.6005 H   0  0  0  0  0  0  0  0  0  0  0  0
    0.6185   -1.9000   -1.2089 H   0  0  0  0  0  0  0  0  0  0  0  0
    0.9880   -2.1268    0.4587 H   0  0  0  0  0  0  0  0  0  0  0  0
   -0.8807    0.8605   -2.8015 H   0  0  0  0  0  0  0  0  0  0  0  0
   -0.0517   -0.6339   -2.5537 H   0  0  0  0  0  0  0  0  0  0  0  0
    1.5724    3.2858   -0.6817 H   0  0  0  0  0  0  0  0  0  0  0  0
    0.9069    2.7484    0.8556 H   0  0  0  0  0  0  0  0  0  0  0  0
    3.2182   -0.7591    1.1836 H   0  0  0  0  0  0  0  0  0  0  0  0
   -2.9903   -0.1869   -2.7533 H   0  0  0  0  0  0  0  0  0  0  0  0
   -2.0474   -1.5549   -3.3028 H   0  0  0  0  0  0  0  0  0  0  0  0
    3.0018   -2.4706   -0.6766 H   0  0  0  0  0  0  0  0  0  0  0  0
    2.7503   -1.1647   -1.7990 H   0  0  0  0  0  0  0  0  0  0  0  0
    1.3303   -0.4347    2.0298 H   0  0  0  0  0  0  0  0  0  0  0  0
   -0.3958   -0.6492    1.8878 H   0  0  0  0  0  0  0  0  0  0  0  0
    0.3042    0.9688    1.9763 H   0  0  0  0  0  0  0  0  0  0  0  0
    4.4395    1.5806    1.4868 H   0  0  0  0  0  0  0  0  0  0  0  0
    2.7721    1.4603    2.0473 H   0  0  0  0  0  0  0  0  0  0  0  0
    3.2874    2.8413    1.0686 H   0  0  0  0  0  0  0  0  0  0  0  0
    4.9601    1.6154   -0.9648 H   0  0  0  0  0  0  0  0  0  0  0  0
    3.6066    2.6373   -1.4256 H   0  0  0  0  0  0  0  0  0  0  0  0
    3.7858    1.0376   -2.1555 H   0  0  0  0  0  0  0  0  0  0  0  0
   -4.4990   -2.0006   -1.7285 H   0  0  0  0  0  0  0  0  0  0  0  0
   -4.4058   -0.7505   -0.4566 H   0  0  0  0  0  0  0  0  0  0  0  0
   -3.6250    1.3061   -0.6180 H   0  0  0  0  0  0  0  0  0  0  0  0
   -2.8126    1.8837   -2.0927 H   0  0  0  0  0  0  0  0  0  0  0  0
   -3.1886    2.9818   -0.8112 H   0  0  0  0  0  0  0  0  0  0  0  0
   -2.1731   -3.5241   -2.0263 H   0  0  0  0  0  0  0  0  0  0  0  0
   -1.0169   -3.1498   -0.7287 H   0  0  0  0  0  0  0  0  0  0  0  0
   -4.9295   -3.3243    0.1736 H   0  0  0  0  0  0  0  0  0  0  0  0
   -3.8033    2.2290    2.4914 H   0  0  0  0  0  0  0  0  0  0  0  0
   -3.2954    3.8510    3.0057 H   0  0  0  0  0  0  0  0  0  0  0  0
   -2.3227    2.4454    3.4876 H   0  0  0  0  0  0  0  0  0  0  0  0
    7.3247   -2.5958    0.8721 H   0  0  0  0  0  0  0  0  0  0  0  0
    7.3619   -0.8585    0.5077 H   0  0  0  0  0  0  0  0  0  0  0  0
    6.9679   -2.0499   -0.7794 H   0  0  0  0  0  0  0  0  0  0  0  0
   -4.7561   -3.7770    2.4831 H   0  0  0  0  0  0  0  0  0  0  0  0
   -3.7458   -2.7146    3.4830 H   0  0  0  0  0  0  0  0  0  0  0  0
   -2.9653   -3.8866    2.4078 H   0  0  0  0  0  0  0  0  0  0  0  0
  1 10  1  0  0  0  0
  1 16  1  0  0  0  0
  2 13  1  0  0  0  0
  2 29  1  0  0  0  0
  3 18  1  0  0  0  0
  3 30  1  0  0  0  0
  4 27  1  0  0  0  0
  4 28  1  0  0  0  0
  5 22  2  0  0  0  0
  6 28  1  0  0  0  0
  6 33  1  0  0  0  0
  7 29  2  0  0  0  0
  8 30  2  0  0  0  0
  9 10  1  0  0  0  0
  9 11  1  0  0  0  0
  9 14  1  0  0  0  0
  9 21  1  0  0  0  0
 10 13  1  0  0  0  0
 10 15  1  0  0  0  0
 11 12  1  0  0  0  0
 11 17  1  0  0  0  0
 11 34  1  0  0  0  0
 12 18  1  0  0  0  0
 12 23  1  0  0  0  0
 12 24  1  0  0  0  0
 13 22  1  0  0  0  0
 13 26  1  0  0  0  0
 14 20  1  0  0  0  0
 14 35  1  0  0  0  0
 14 36  1  0  0  0  0
 15 19  1  0  0  0  0
 15 37  1  0  0  0  0
 15 38  1  0  0  0  0
 16 19  1  0  0  0  0
 16 25  1  0  0  0  0
 16 27  1  0  0  0  0
 17 22  1  0  0  0  0
 17 39  1  0  0  0  0
 17 40  1  0  0  0  0
 18 20  1  0  0  0  0
 18 41  1  0  0  0  0
 19 42  1  0  0  0  0
 19 43  1  0  0  0  0
 20 44  1  0  0  0  0
 20 45  1  0  0  0  0
 21 46  1  0  0  0  0
 21 47  1  0  0  0  0
 21 48  1  0  0  0  0
 23 49  1  0  0  0  0
 23 50  1  0  0  0  0
 23 51  1  0  0  0  0
 24 52  1  0  0  0  0
 24 53  1  0  0  0  0
 24 54  1  0  0  0  0
 25 28  1  0  0  0  0
 25 55  1  0  0  0  0
 25 56  1  0  0  0  0
 26 57  1  0  0  0  0
 26 58  1  0  0  0  0
 26 59  1  0  0  0  0
 27 60  1  0  0  0  0
 27 61  1  0  0  0  0
 28 62  1  0  0  0  0
 29 31  1  0  0  0  0
 30 32  1  0  0  0  0
 31 63  1  0  0  0  0
 31 64  1  0  0  0  0
 31 65  1  0  0  0  0
 32 66  1  0  0  0  0
 32 67  1  0  0  0  0
 32 68  1  0  0  0  0
 33 69  1  0  0  0  0
 33 70  1  0  0  0  0
 33 71  1  0  0  0  0
M  END
> <PUBCHEM_COMPOUND_CID>
102054462

> <PUBCHEM_CONFORMER_RMSD>
1

> <PUBCHEM_CONFORMER_DIVERSEORDER>
1
3
2
4

> <PUBCHEM_MMFF94_PARTIAL_CHARGES>
21
1 -0.56
10 0.28
13 0.34
16 0.28
17 0.06
18 0.28
2 -0.43
22 0.45
27 0.28
28 0.56
29 0.66
3 -0.43
30 0.66
31 0.06
32 0.06
33 0.28
4 -0.56
5 -0.57
6 -0.56
7 -0.57
8 -0.57

> <PUBCHEM_EFFECTIVE_ROTOR_COUNT>
7.6

> <PUBCHEM_PHARMACOPHORE_FEATURES>
11
1 1 acceptor
1 4 acceptor
1 5 acceptor
1 6 acceptor
1 7 acceptor
1 8 acceptor
3 12 23 24 hydrophobe
5 1 10 15 16 19 rings
5 4 16 25 27 28 rings
6 9 10 11 13 17 22 rings
6 9 11 12 14 18 20 rings

> <PUBCHEM_HEAVY_ATOM_COUNT>
33

> <PUBCHEM_ATOM_DEF_STEREO_COUNT>
7

> <PUBCHEM_ATOM_UDEF_STEREO_COUNT>
0

> <PUBCHEM_BOND_DEF_STEREO_COUNT>
0

> <PUBCHEM_BOND_UDEF_STEREO_COUNT>
0

> <PUBCHEM_ISOTOPIC_ATOM_COUNT>
0

> <PUBCHEM_COMPONENT_COUNT>
1

> <PUBCHEM_CACTVS_TAUTO_COUNT>
8

> <PUBCHEM_CONFORMER_ID>
06153A3E00000001

> <PUBCHEM_MMFF94_ENERGY>
141.9651

> <PUBCHEM_FEATURE_SELFOVERLAP>
55.914

> <PUBCHEM_SHAPE_FINGERPRINT>
11115154 58 17557951101646830813
11135609 12 18260544545931931656
11387372 6 18046920281406149762
11578080 2 17201895202550494329
12156800 1 17693149228476769453
12422481 6 17916604079884999667
12553582 1 18197780122534344950
12633257 1 18198341758898017492
12760667 363 18412254064879050783
12788726 201 18200045052237049028
13004483 165 18341893034604737003
13009979 54 18411420614085894188
13140716 1 18341609287822519792
13383661 66 16299817401406086098
13544653 18 18116149063790143591
13583140 156 17242180041682478960
13911987 19 17466520314348612356
13965767 371 17055602960372321011
14178342 30 18270963436602250078
14790565 3 17111850920937405853
14844126 61 18201142283084651726
14866123 147 18268426841374983363
14955137 171 17766301025331150255
15131766 46 14761776599363825786
15775530 1 17701567037732646359
1813 80 18126297568998892085
18603816 31 16805876278512566522
20775438 99 16542367618185033247
20775530 9 18187915227417933390
21033648 29 15194467341607744963
23419403 2 16738916295132573609
23559900 14 18263906852647984806
25147074 1 18336558157385246052
2818148 4 18334872614412630964
312423 11 18335145302054513406
3380486 145 17842813771712420637
345986 75 18127701624062622971
350125 39 18342453738564419724
3737641 26 18190465054869596958
484985 159 18187078408558352075
5104073 3 18270950264517718178
5486654 36 18411136897035787986
58260988 114 18114755849239731226
79837 15 17984149158001414889
9981440 41 17058637465729076310

> <PUBCHEM_SHAPE_MULTIPOLES>
632.17
9.69
4.84
2.05
14.68
1.47
0.56
-8.88
3.12
-4.54
1.54
-2.13
0.11
-0.9

> <PUBCHEM_SHAPE_SELFOVERLAP>
1339.871

> <PUBCHEM_SHAPE_VOLUME>
349

> <PUBCHEM_COORDINATE_TYPE>
2
5
10

$$$$
