12187536
  -OEChem-08282007313D

 49 51  0     1  0  0  0  0  0999 V2000
   -3.8658   -1.3632   -0.7670 O   0  0  0  0  0  0  0  0  0  0  0  0
   -2.1908   -3.3954   -0.0742 O   0  0  0  0  0  0  0  0  0  0  0  0
    5.7488    1.2151   -0.2968 O   0  0  0  0  0  0  0  0  0  0  0  0
   -0.8097    0.4106    0.6514 C   0  0  2  0  0  0  0  0  0  0  0  0
   -3.1068    1.4059   -0.2270 C   0  0  0  0  0  0  0  0  0  0  0  0
   -2.2146    0.1625    0.0602 C   0  0  0  0  0  0  0  0  0  0  0  0
   -0.2228    1.6659   -0.0434 C   0  0  0  0  0  0  0  0  0  0  0  0
   -2.5232    2.7117    0.3672 C   0  0  0  0  0  0  0  0  0  0  0  0
   -1.0489    2.9412    0.0819 C   0  0  0  0  0  0  0  0  0  0  0  0
    0.1574   -0.7807    0.4289 C   0  0  0  0  0  0  0  0  0  0  0  0
   -0.9213    0.5923    2.1843 C   0  0  0  0  0  0  0  0  0  0  0  0
   -3.2482    1.5999   -1.7553 C   0  0  0  0  0  0  0  0  0  0  0  0
   -4.5220    1.2653    0.3870 C   0  0  0  0  0  0  0  0  0  0  0  0
   -2.6208   -1.0893   -0.2408 C   0  0  0  0  0  0  0  0  0  0  0  0
   -0.2725   -2.0166    0.1035 C   0  0  0  0  0  0  0  0  0  0  0  0
    1.6305   -0.5133    0.6710 C   0  0  0  0  0  0  0  0  0  0  0  0
   -1.7300   -2.2566   -0.0495 C   0  0  0  0  0  0  0  0  0  0  0  0
    2.3229   -0.0735   -0.6105 C   0  0  0  0  0  0  0  0  0  0  0  0
    0.5961   -3.2207   -0.1363 C   0  0  0  0  0  0  0  0  0  0  0  0
    3.7834    0.1827   -0.3816 C   0  0  0  0  0  0  0  0  0  0  0  0
    4.7130   -0.7364    0.1168 C   0  0  0  0  0  0  0  0  0  0  0  0
    4.4365    1.3504   -0.6219 C   0  0  0  0  0  0  0  0  0  0  0  0
    5.9087   -0.0576    0.1521 C   0  0  0  0  0  0  0  0  0  0  0  0
   -0.1100    1.4595   -1.1164 H   0  0  0  0  0  0  0  0  0  0  0  0
    0.7674    1.9213    0.3483 H   0  0  0  0  0  0  0  0  0  0  0  0
   -2.6798    2.7330    1.4521 H   0  0  0  0  0  0  0  0  0  0  0  0
   -3.0852    3.5822    0.0010 H   0  0  0  0  0  0  0  0  0  0  0  0
   -0.6355    3.5709    0.8800 H   0  0  0  0  0  0  0  0  0  0  0  0
   -0.9361    3.5251   -0.8403 H   0  0  0  0  0  0  0  0  0  0  0  0
   -1.7518    1.2305    2.4906 H   0  0  0  0  0  0  0  0  0  0  0  0
   -1.0837   -0.3701    2.6869 H   0  0  0  0  0  0  0  0  0  0  0  0
   -0.0106    1.0314    2.6064 H   0  0  0  0  0  0  0  0  0  0  0  0
   -3.7698    0.7623   -2.2304 H   0  0  0  0  0  0  0  0  0  0  0  0
   -3.8244    2.5038   -1.9855 H   0  0  0  0  0  0  0  0  0  0  0  0
   -2.2732    1.6969   -2.2449 H   0  0  0  0  0  0  0  0  0  0  0  0
   -5.0672    2.2160    0.3376 H   0  0  0  0  0  0  0  0  0  0  0  0
   -5.1439    0.5337   -0.1359 H   0  0  0  0  0  0  0  0  0  0  0  0
   -4.4669    0.9714    1.4417 H   0  0  0  0  0  0  0  0  0  0  0  0
    2.1144   -1.4023    1.0939 H   0  0  0  0  0  0  0  0  0  0  0  0
    1.7632    0.2425    1.4542 H   0  0  0  0  0  0  0  0  0  0  0  0
    1.8913    0.8144   -1.0718 H   0  0  0  0  0  0  0  0  0  0  0  0
    2.2390   -0.8640   -1.3685 H   0  0  0  0  0  0  0  0  0  0  0  0
    1.6504   -2.9798   -0.2900 H   0  0  0  0  0  0  0  0  0  0  0  0
    0.2720   -3.7503   -1.0393 H   0  0  0  0  0  0  0  0  0  0  0  0
    0.5248   -3.9109    0.7107 H   0  0  0  0  0  0  0  0  0  0  0  0
   -3.9226   -2.3231   -0.9133 H   0  0  0  0  0  0  0  0  0  0  0  0
    4.5554   -1.7632    0.4140 H   0  0  0  0  0  0  0  0  0  0  0  0
    4.1459    2.3201   -0.9991 H   0  0  0  0  0  0  0  0  0  0  0  0
    6.9113   -0.3245    0.4527 H   0  0  0  0  0  0  0  0  0  0  0  0
  1 14  1  0  0  0  0
  1 46  1  0  0  0  0
  2 17  2  0  0  0  0
  3 22  1  0  0  0  0
  3 23  1  0  0  0  0
  4  6  1  0  0  0  0
  4  7  1  0  0  0  0
  4 10  1  0  0  0  0
  4 11  1  0  0  0  0
  5  6  1  0  0  0  0
  5  8  1  0  0  0  0
  5 12  1  0  0  0  0
  5 13  1  0  0  0  0
  6 14  2  0  0  0  0
  7  9  1  0  0  0  0
  7 24  1  0  0  0  0
  7 25  1  0  0  0  0
  8  9  1  0  0  0  0
  8 26  1  0  0  0  0
  8 27  1  0  0  0  0
  9 28  1  0  0  0  0
  9 29  1  0  0  0  0
 10 15  2  0  0  0  0
 10 16  1  0  0  0  0
 11 30  1  0  0  0  0
 11 31  1  0  0  0  0
 11 32  1  0  0  0  0
 12 33  1  0  0  0  0
 12 34  1  0  0  0  0
 12 35  1  0  0  0  0
 13 36  1  0  0  0  0
 13 37  1  0  0  0  0
 13 38  1  0  0  0  0
 14 17  1  0  0  0  0
 15 17  1  0  0  0  0
 15 19  1  0  0  0  0
 16 18  1  0  0  0  0
 16 39  1  0  0  0  0
 16 40  1  0  0  0  0
 18 20  1  0  0  0  0
 18 41  1  0  0  0  0
 18 42  1  0  0  0  0
 19 43  1  0  0  0  0
 19 44  1  0  0  0  0
 19 45  1  0  0  0  0
 20 21  1  0  0  0  0
 20 22  2  0  0  0  0
 21 23  2  0  0  0  0
 21 47  1  0  0  0  0
 22 48  1  0  0  0  0
 23 49  1  0  0  0  0
M  END
> <PUBCHEM_COMPOUND_CID>
12187536

> <PUBCHEM_CONFORMER_RMSD>
0.6

> <PUBCHEM_CONFORMER_DIVERSEORDER>
1
3
8
5
2
6
4
7

> <PUBCHEM_MMFF94_PARTIAL_CHARGES>
21
1 -0.53
10 -0.28
14 0.09
15 -0.12
16 0.14
17 0.54
18 0.18
19 0.14
2 -0.57
20 -0.18
21 -0.15
22 -0.01
23 -0.01
3 -0.28
4 0.28
46 0.45
47 0.15
48 0.15
49 0.15
5 0.14
6 -0.28

> <PUBCHEM_EFFECTIVE_ROTOR_COUNT>
3.8

> <PUBCHEM_PHARMACOPHORE_FEATURES>
7
1 1 donor
1 2 acceptor
1 3 acceptor
3 5 12 13 hydrophobe
5 3 20 21 22 23 rings
6 4 5 6 7 8 9 rings
6 4 6 10 14 15 17 rings

> <PUBCHEM_HEAVY_ATOM_COUNT>
23

> <PUBCHEM_ATOM_DEF_STEREO_COUNT>
1

> <PUBCHEM_ATOM_UDEF_STEREO_COUNT>
0

> <PUBCHEM_BOND_DEF_STEREO_COUNT>
0

> <PUBCHEM_BOND_UDEF_STEREO_COUNT>
0

> <PUBCHEM_ISOTOPIC_ATOM_COUNT>
0

> <PUBCHEM_COMPONENT_COUNT>
1

> <PUBCHEM_CACTVS_TAUTO_COUNT>
10

> <PUBCHEM_CONFORMER_ID>
00B9F79000000001

> <PUBCHEM_MMFF94_ENERGY>
60.8407

> <PUBCHEM_FEATURE_SELFOVERLAP>
35.54

> <PUBCHEM_SHAPE_FINGERPRINT>
10319926 262 18270381877304290962
10411042 1 17906735061204462327
10493431 412 18341623555809385401
10498660 4 18410292497791213004
10693767 8 17626646551951168039
1100329 8 18411423951006769585
11315181 36 18040715922638094668
11370993 70 18339642244335063934
11961588 58 17386827449632067781
12107183 9 18046901581703469266
121448 382 18342742892415174018
12173636 292 18339921511192364180
12236239 1 17894909642254253722
12293681 160 17987509308765315321
12403814 3 18336839653377558571
12788726 201 18116707607281537306
13140716 1 18339651164876675297
13583140 156 17313110722106148936
14713325 29 18335425690104396035
14767858 380 18340468012153966573
14790565 3 18269000778203563817
15042514 8 18336554909857291667
15463212 79 18260540134832045210
16752209 62 18341037610353336282
16945 1 18198888233351305001
17492 54 18262219068029294253
17492 89 18408608080638567458
19591789 44 18338519767553884507
200 152 17132393908722641376
20101258 96 17831593337081979282
20511986 3 18041824195872722904
20715895 44 18263358097155743300
20775438 99 16401925937064842111
20871999 31 18341324569934114471
21236236 1 18412826910563319439
21524375 3 18115594733993983528
2306618 200 18271818942199762106
23227448 37 18411140255378577068
23352939 185 18127137596019701801
23366157 5 17901106326263897562
23402539 116 18413666920388189324
23419403 2 17416677158131083969
23557571 272 18272941552409432564
23559900 14 18272371941579225278
2748010 2 18053081090090435731
2838139 119 16951949688118152405
350125 39 18410575111287658913
4214541 1 18409730673335280188
469060 322 18265072356274327531
484989 97 18119239809068522255
5104073 3 18335700568453880568
559249 180 18335978689161924346
9709674 26 18343029874167965702
9981440 41 18335420145117111370

> <PUBCHEM_SHAPE_MULTIPOLES>
455.72
9.73
3.31
1.09
15.18
1.65
-0.22
-3.8
1.69
-2.5
0.27
-0.62
-0.33
-0.36

> <PUBCHEM_SHAPE_SELFOVERLAP>
974.505

> <PUBCHEM_SHAPE_VOLUME>
252.6

> <PUBCHEM_COORDINATE_TYPE>
2
5
10

$$$$
