15726751
  -OEChem-08282006483D

 54 56  0     1  0  0  0  0  0999 V2000
   -0.2961   -0.5818   -2.2703 O   0  0  0  0  0  0  0  0  0  0  0  0
   -1.7040   -3.5462    0.4307 O   0  0  0  0  0  0  0  0  0  0  0  0
   -3.1884   -1.5719    1.2736 O   0  0  0  0  0  0  0  0  0  0  0  0
    5.9066    0.1366    0.7032 O   0  0  0  0  0  0  0  0  0  0  0  0
   -0.7334    0.6065   -0.1773 C   0  0  1  0  0  0  0  0  0  0  0  0
   -2.2425    0.1619   -0.1617 C   0  0  2  0  0  0  0  0  0  0  0  0
    0.1561   -0.5036   -0.9050 C   0  0  1  0  0  0  0  0  0  0  0  0
   -3.2643    1.2233    0.4064 C   0  0  0  0  0  0  0  0  0  0  0  0
   -0.6080    1.9645   -0.9548 C   0  0  0  0  0  0  0  0  0  0  0  0
   -0.0352   -1.9097   -0.2517 C   0  0  1  0  0  0  0  0  0  0  0  0
   -2.7854    2.6687    0.1008 C   0  0  0  0  0  0  0  0  0  0  0  0
   -1.9108    2.7410   -1.1363 C   0  0  0  0  0  0  0  0  0  0  0  0
   -2.3805   -1.2609    0.4013 C   0  0  0  0  0  0  0  0  0  0  0  0
   -1.5150   -2.3191   -0.2594 C   0  0  2  0  0  0  0  0  0  0  0  0
   -0.2165    0.8292    1.2677 C   0  0  0  0  0  0  0  0  0  0  0  0
    1.6520   -0.1232   -0.9520 C   0  0  0  0  0  0  0  0  0  0  0  0
   -4.6254    1.0067   -0.3053 C   0  0  0  0  0  0  0  0  0  0  0  0
   -3.5433    1.1478    1.9250 C   0  0  0  0  0  0  0  0  0  0  0  0
    0.7980   -3.0225   -0.9154 C   0  0  0  0  0  0  0  0  0  0  0  0
    2.2512   -0.1241    0.4474 C   0  0  0  0  0  0  0  0  0  0  0  0
    3.7047    0.2442    0.4227 C   0  0  0  0  0  0  0  0  0  0  0  0
    4.2467    1.4290   -0.0881 C   0  0  0  0  0  0  0  0  0  0  0  0
    4.7297   -0.5154    0.8930 C   0  0  0  0  0  0  0  0  0  0  0  0
    5.6039    1.3190    0.1055 C   0  0  0  0  0  0  0  0  0  0  0  0
   -2.5219    0.0311   -1.2197 H   0  0  0  0  0  0  0  0  0  0  0  0
   -0.2070    1.8101   -1.9633 H   0  0  0  0  0  0  0  0  0  0  0  0
    0.1229    2.6217   -0.4673 H   0  0  0  0  0  0  0  0  0  0  0  0
    0.2716   -1.8983    0.7989 H   0  0  0  0  0  0  0  0  0  0  0  0
   -2.2099    3.0687    0.9459 H   0  0  0  0  0  0  0  0  0  0  0  0
   -3.6439    3.3417   -0.0184 H   0  0  0  0  0  0  0  0  0  0  0  0
   -1.6758    3.7873   -1.3650 H   0  0  0  0  0  0  0  0  0  0  0  0
   -2.4569    2.3531   -2.0047 H   0  0  0  0  0  0  0  0  0  0  0  0
   -1.8769   -2.4600   -1.2846 H   0  0  0  0  0  0  0  0  0  0  0  0
   -0.9868    1.2887    1.8786 H   0  0  0  0  0  0  0  0  0  0  0  0
    0.0537   -0.0754    1.8141 H   0  0  0  0  0  0  0  0  0  0  0  0
    0.5245    1.6299    1.3332 H   0  0  0  0  0  0  0  0  0  0  0  0
    1.7775    0.8574   -1.4265 H   0  0  0  0  0  0  0  0  0  0  0  0
    2.2099   -0.7997   -1.6120 H   0  0  0  0  0  0  0  0  0  0  0  0
   -4.5408    1.1586   -1.3870 H   0  0  0  0  0  0  0  0  0  0  0  0
   -5.3827    1.7072    0.0659 H   0  0  0  0  0  0  0  0  0  0  0  0
   -5.0061   -0.0073   -0.1412 H   0  0  0  0  0  0  0  0  0  0  0  0
   -3.9309    2.1024    2.3019 H   0  0  0  0  0  0  0  0  0  0  0  0
   -2.6917    0.8727    2.5434 H   0  0  0  0  0  0  0  0  0  0  0  0
   -4.3234    0.4096    2.1471 H   0  0  0  0  0  0  0  0  0  0  0  0
    0.6355   -3.9837   -0.4153 H   0  0  0  0  0  0  0  0  0  0  0  0
    0.5320   -3.1544   -1.9688 H   0  0  0  0  0  0  0  0  0  0  0  0
    1.8713   -2.8251   -0.8522 H   0  0  0  0  0  0  0  0  0  0  0  0
    0.3222   -1.1401   -2.7701 H   0  0  0  0  0  0  0  0  0  0  0  0
    2.1725   -1.1057    0.9237 H   0  0  0  0  0  0  0  0  0  0  0  0
    1.9213    0.6107    1.1532 H   0  0  0  0  0  0  0  0  0  0  0  0
   -2.6302   -3.8142    0.3037 H   0  0  0  0  0  0  0  0  0  0  0  0
    3.7341    2.2667   -0.5391 H   0  0  0  0  0  0  0  0  0  0  0  0
    4.8032   -1.4848    1.3642 H   0  0  0  0  0  0  0  0  0  0  0  0
    6.4447    1.9608   -0.1132 H   0  0  0  0  0  0  0  0  0  0  0  0
  1  7  1  0  0  0  0
  1 48  1  0  0  0  0
  2 14  1  0  0  0  0
  2 51  1  0  0  0  0
  3 13  2  0  0  0  0
  4 23  1  0  0  0  0
  4 24  1  0  0  0  0
  5  6  1  0  0  0  0
  5  7  1  0  0  0  0
  5  9  1  0  0  0  0
  5 15  1  0  0  0  0
  6  8  1  0  0  0  0
  6 13  1  0  0  0  0
  6 25  1  0  0  0  0
  7 10  1  0  0  0  0
  7 16  1  0  0  0  0
  8 11  1  0  0  0  0
  8 17  1  0  0  0  0
  8 18  1  0  0  0  0
  9 12  1  0  0  0  0
  9 26  1  0  0  0  0
  9 27  1  0  0  0  0
 10 14  1  0  0  0  0
 10 19  1  0  0  0  0
 10 28  1  0  0  0  0
 11 12  1  0  0  0  0
 11 29  1  0  0  0  0
 11 30  1  0  0  0  0
 12 31  1  0  0  0  0
 12 32  1  0  0  0  0
 13 14  1  0  0  0  0
 14 33  1  0  0  0  0
 15 34  1  0  0  0  0
 15 35  1  0  0  0  0
 15 36  1  0  0  0  0
 16 20  1  0  0  0  0
 16 37  1  0  0  0  0
 16 38  1  0  0  0  0
 17 39  1  0  0  0  0
 17 40  1  0  0  0  0
 17 41  1  0  0  0  0
 18 42  1  0  0  0  0
 18 43  1  0  0  0  0
 18 44  1  0  0  0  0
 19 45  1  0  0  0  0
 19 46  1  0  0  0  0
 19 47  1  0  0  0  0
 20 21  1  0  0  0  0
 20 49  1  0  0  0  0
 20 50  1  0  0  0  0
 21 22  1  0  0  0  0
 21 23  2  0  0  0  0
 22 24  2  0  0  0  0
 22 52  1  0  0  0  0
 23 53  1  0  0  0  0
 24 54  1  0  0  0  0
M  END
> <PUBCHEM_COMPOUND_CID>
15726751

> <PUBCHEM_CONFORMER_RMSD>
0.8

> <PUBCHEM_CONFORMER_DIVERSEORDER>
1
2
3

> <PUBCHEM_MMFF94_PARTIAL_CHARGES>
18
1 -0.68
13 0.45
14 0.34
2 -0.68
20 0.18
21 -0.18
22 -0.15
23 -0.01
24 -0.01
3 -0.57
4 -0.28
48 0.4
51 0.4
52 0.15
53 0.15
54 0.15
6 0.06
7 0.28

> <PUBCHEM_EFFECTIVE_ROTOR_COUNT>
4.4

> <PUBCHEM_PHARMACOPHORE_FEATURES>
10
1 1 acceptor
1 1 donor
1 2 acceptor
1 2 donor
1 3 acceptor
1 4 acceptor
3 8 17 18 hydrophobe
5 4 21 22 23 24 rings
6 5 6 7 10 13 14 rings
6 5 6 8 9 11 12 rings

> <PUBCHEM_HEAVY_ATOM_COUNT>
24

> <PUBCHEM_ATOM_DEF_STEREO_COUNT>
5

> <PUBCHEM_ATOM_UDEF_STEREO_COUNT>
0

> <PUBCHEM_BOND_DEF_STEREO_COUNT>
0

> <PUBCHEM_BOND_UDEF_STEREO_COUNT>
0

> <PUBCHEM_ISOTOPIC_ATOM_COUNT>
0

> <PUBCHEM_COMPONENT_COUNT>
1

> <PUBCHEM_CACTVS_TAUTO_COUNT>
5

> <PUBCHEM_CONFORMER_ID>
00EFF89F00000001

> <PUBCHEM_MMFF94_ENERGY>
100.5905

> <PUBCHEM_FEATURE_SELFOVERLAP>
50.772

> <PUBCHEM_SHAPE_FINGERPRINT>
10165383 225 18272938197718572113
10319926 262 18339909486349201906
10411042 1 17762336216197739663
10906281 52 18335997376306302885
10948715 1 18268426841527665231
11132069 177 18336555949028140277
11273773 46 17984719831535539430
11370993 70 18337951173427964582
12011746 2 18340477924585245549
12035758 1 18336282205873375145
12107183 9 17683792221452977000
12173636 292 18339349855914811572
12390115 104 18200328692220278648
12403259 415 18194692466408772429
12403814 3 18334293166999163097
12633257 1 18341902895554587728
12892183 10 17603872143838787200
13004483 165 17980468280813603118
13140716 1 18264499549476560225
13544653 18 12396596130069144868
13583140 156 18271799151449287368
13994607 96 17489593384777586520
14178342 30 18266201494860642115
14420673 8 18118399537234738794
14787075 74 18060412513159977509
15042514 8 18335423525303592163
15230672 131 18337114442151460462
15295992 7 17846483864559287168
16945 1 18191609496440198957
17980427 23 17313675841102750101
18915476 22 17131286666169772102
19377110 9 17822841109483678240
19784866 170 18410299094591798374
200 152 10015865392825838512
204376 136 18341895156091513480
21202864 24 18410294722104042408
21236236 1 18342735260384980455
21756936 100 18271516581525051788
22182313 1 17899990339420545061
22224240 67 18342459219127578921
23227448 37 18410290350228619212
23402539 116 18339916104440221479
23419403 2 14546457055495392223
23559900 14 17836363752841255750
2748010 2 17828781538399880149
3286 77 14274322331346523341
4340502 62 18270410382422251401
5104073 3 18121231883318645137
58807428 26 18334868168757443875
633830 44 17631742543231397620
7097593 13 18115014226615143850
90316 7 18186806889167997773
9862522 239 18337383859866853092
9981440 41 18338517439513084827

> <PUBCHEM_SHAPE_MULTIPOLES>
470.43
9.28
3.15
1.35
13.48
1.82
0.05
-4.72
-3.13
-2.18
0.49
-0.61
-0.1
0.37

> <PUBCHEM_SHAPE_SELFOVERLAP>
993.578

> <PUBCHEM_SHAPE_VOLUME>
263.8

> <PUBCHEM_COORDINATE_TYPE>
2
5
10

$$$$
