129686768
  -OEChem-08292001333D

 26 26  0     1  0  0  0  0  0999 V2000
    2.3934    0.0846   -1.7771 O   0  0  0  0  0  0  0  0  0  0  0  0
    2.3378    1.0492    1.7473 O   0  0  0  0  0  0  0  0  0  0  0  0
    0.7310   -0.4837   -0.1581 C   0  0  0  0  0  0  0  0  0  0  0  0
    2.1537   -0.0918   -0.3755 C   0  0  2  0  0  0  0  0  0  0  0  0
   -1.6261    0.0263   -0.3057 C   0  0  0  0  0  0  0  0  0  0  0  0
   -0.2957    0.3932   -0.5086 C   0  0  0  0  0  0  0  0  0  0  0  0
   -2.7237    0.9638   -0.6804 C   0  0  0  0  0  0  0  0  0  0  0  0
    0.4271   -1.7276    0.3952 C   0  0  0  0  0  0  0  0  0  0  0  0
    2.5458    1.2042    0.3507 C   0  0  0  0  0  0  0  0  0  0  0  0
   -1.9299   -1.2177    0.2476 C   0  0  0  0  0  0  0  0  0  0  0  0
   -0.9034   -2.0946    0.5978 C   0  0  0  0  0  0  0  0  0  0  0  0
   -3.1099    1.8940    0.4667 C   0  0  0  0  0  0  0  0  0  0  0  0
    2.8198   -0.8931   -0.0329 H   0  0  0  0  0  0  0  0  0  0  0  0
   -0.0671    1.3611   -0.9479 H   0  0  0  0  0  0  0  0  0  0  0  0
   -2.4247    1.5627   -1.5497 H   0  0  0  0  0  0  0  0  0  0  0  0
   -3.6065    0.3970   -1.0019 H   0  0  0  0  0  0  0  0  0  0  0  0
    1.2150   -2.4223    0.6737 H   0  0  0  0  0  0  0  0  0  0  0  0
    3.6038    1.4265    0.1717 H   0  0  0  0  0  0  0  0  0  0  0  0
    1.9715    2.0663   -0.0051 H   0  0  0  0  0  0  0  0  0  0  0  0
   -2.9623   -1.5147    0.4124 H   0  0  0  0  0  0  0  0  0  0  0  0
   -1.1400   -3.0630    1.0289 H   0  0  0  0  0  0  0  0  0  0  0  0
   -3.4574    1.3268    1.3368 H   0  0  0  0  0  0  0  0  0  0  0  0
   -3.9161    2.5650    0.1538 H   0  0  0  0  0  0  0  0  0  0  0  0
   -2.2593    2.5076    0.7824 H   0  0  0  0  0  0  0  0  0  0  0  0
    1.9908   -0.6643   -2.2492 H   0  0  0  0  0  0  0  0  0  0  0  0
    2.6072    1.8825    2.1700 H   0  0  0  0  0  0  0  0  0  0  0  0
  1  4  1  0  0  0  0
  1 25  1  0  0  0  0
  2  9  1  0  0  0  0
  2 26  1  0  0  0  0
  3  4  1  0  0  0  0
  3  6  1  0  0  0  0
  3  8  2  0  0  0  0
  4  9  1  0  0  0  0
  4 13  1  0  0  0  0
  5  6  2  0  0  0  0
  5  7  1  0  0  0  0
  5 10  1  0  0  0  0
  6 14  1  0  0  0  0
  7 12  1  0  0  0  0
  7 15  1  0  0  0  0
  7 16  1  0  0  0  0
  8 11  1  0  0  0  0
  8 17  1  0  0  0  0
  9 18  1  0  0  0  0
  9 19  1  0  0  0  0
 10 11  2  0  0  0  0
 10 20  1  0  0  0  0
 11 21  1  0  0  0  0
 12 22  1  0  0  0  0
 12 23  1  0  0  0  0
 12 24  1  0  0  0  0
M  END
> <PUBCHEM_COMPOUND_CID>
129686768

> <PUBCHEM_CONFORMER_RMSD>
0.6

> <PUBCHEM_CONFORMER_DIVERSEORDER>
1
14
28
19
13
25
26
4
7
29
17
12
16
8
15
24
21
3
30
6
27
11
20
9
2
5
23
22
18
10

> <PUBCHEM_MMFF94_PARTIAL_CHARGES>
17
1 -0.68
10 -0.15
11 -0.15
14 0.15
17 0.15
2 -0.68
20 0.15
21 0.15
25 0.4
26 0.4
3 -0.14
4 0.42
5 -0.14
6 -0.15
7 0.14
8 -0.15
9 0.28

> <PUBCHEM_EFFECTIVE_ROTOR_COUNT>
3

> <PUBCHEM_PHARMACOPHORE_FEATURES>
6
1 1 acceptor
1 1 donor
1 12 hydrophobe
1 2 acceptor
1 2 donor
6 3 5 6 8 10 11 rings

> <PUBCHEM_HEAVY_ATOM_COUNT>
12

> <PUBCHEM_ATOM_DEF_STEREO_COUNT>
0

> <PUBCHEM_ATOM_UDEF_STEREO_COUNT>
1

> <PUBCHEM_BOND_DEF_STEREO_COUNT>
0

> <PUBCHEM_BOND_UDEF_STEREO_COUNT>
0

> <PUBCHEM_ISOTOPIC_ATOM_COUNT>
0

> <PUBCHEM_COMPONENT_COUNT>
1

> <PUBCHEM_CACTVS_TAUTO_COUNT>
5

> <PUBCHEM_CONFORMER_ID>
07BADCF000000001

> <PUBCHEM_MMFF94_ENERGY>
26.3623

> <PUBCHEM_FEATURE_SELFOVERLAP>
30.446

> <PUBCHEM_SHAPE_FINGERPRINT>
12716758 59 18410860974882286494
12932764 1 18130234851313369038
13380535 21 18189917339144081919
13571099 52 17916849309869732168
13764800 53 18335994129015121393
13839132 238 18341048609558378620
14390081 3 18343014476303799909
15279308 16 18058444468908322312
15775835 57 18336829693053168449
16945 1 18190184674924982271
18186145 218 18271806757652089869
19837323 101 18411138069261393523
20510252 161 18265336303320470299
20511035 2 18261954055077237930
20645464 45 18343017843431397042
20653085 51 17417537921401814873
21028194 46 18335420127973534703
21040471 1 18260831492296330151
21524375 3 18336826373460206127
21930827 45 18336554892460813142
21947302 44 18059564806690104888
22802520 49 18129960999934893516
230 275 18338509755452646737
23211744 41 18130222786808133278
23419403 2 16534337510941373795
23559900 14 18340217302466074246
25610 171 18048311433817619194
2748010 2 18260835852078688127
276578 36 18190472566693317185
305870 269 18190447281993914553
3071541 236 17968927716916713203
5084963 1 18268728253584470862
53812653 166 18338518542918531824
7364860 26 18053656976053193039
81228 2 18118409672761009907

> <PUBCHEM_SHAPE_MULTIPOLES>
235.22
4.46
2
1.15
0.44
0.6
0.01
-2.8
0.13
0.92
0.57
-0.81
-0.3
0.29

> <PUBCHEM_SHAPE_SELFOVERLAP>
477.018

> <PUBCHEM_SHAPE_VOLUME>
137.9

> <PUBCHEM_COORDINATE_TYPE>
2
5
10

$$$$
