419490
  -OEChem-08282010313D

 16 16  0     0  0  0  0  0  0999 V2000
    3.0576    0.0105    0.7991 O   0  0  0  0  0  0  0  0  0  0  0  0
   -3.1131    0.0620    0.2613 O   0  0  0  0  0  0  0  0  0  0  0  0
    0.3226    1.1898   -0.1961 N   0  0  0  0  0  0  0  0  0  0  0  0
    0.9353   -0.0129   -0.2741 C   0  0  0  0  0  0  0  0  0  0  0  0
    0.2744   -1.2274   -0.1838 C   0  0  0  0  0  0  0  0  0  0  0  0
    2.4146    0.0023   -0.4693 C   0  0  0  0  0  0  0  0  0  0  0  0
   -1.1040   -1.2063   -0.0016 C   0  0  0  0  0  0  0  0  0  0  0  0
   -1.7698    0.0114    0.0834 C   0  0  0  0  0  0  0  0  0  0  0  0
   -1.0175    1.1705   -0.0189 C   0  0  0  0  0  0  0  0  0  0  0  0
    0.8031   -2.1723   -0.2495 H   0  0  0  0  0  0  0  0  0  0  0  0
    2.7602   -0.8681   -1.0360 H   0  0  0  0  0  0  0  0  0  0  0  0
    2.7225    0.8989   -1.0176 H   0  0  0  0  0  0  0  0  0  0  0  0
   -1.6533   -2.1406    0.0739 H   0  0  0  0  0  0  0  0  0  0  0  0
   -1.4796    2.1510    0.0399 H   0  0  0  0  0  0  0  0  0  0  0  0
    2.5993    0.6506    1.3700 H   0  0  0  0  0  0  0  0  0  0  0  0
   -3.3902    0.9938    0.2958 H   0  0  0  0  0  0  0  0  0  0  0  0
  1  6  1  0  0  0  0
  1 15  1  0  0  0  0
  2  8  1  0  0  0  0
  2 16  1  0  0  0  0
  3  4  2  0  0  0  0
  3  9  1  0  0  0  0
  4  5  1  0  0  0  0
  4  6  1  0  0  0  0
  5  7  2  0  0  0  0
  5 10  1  0  0  0  0
  6 11  1  0  0  0  0
  6 12  1  0  0  0  0
  7  8  1  0  0  0  0
  7 13  1  0  0  0  0
  8  9  2  0  0  0  0
  9 14  1  0  0  0  0
M  END
> <PUBCHEM_COMPOUND_CID>
419490

> <PUBCHEM_CONFORMER_RMSD>
0.4

> <PUBCHEM_CONFORMER_DIVERSEORDER>
2
3
1
4

> <PUBCHEM_MMFF94_PARTIAL_CHARGES>
14
1 -0.68
10 0.15
13 0.15
14 0.15
15 0.4
16 0.45
2 -0.53
3 -0.62
4 0.17
5 -0.15
6 0.42
7 -0.15
8 0.08
9 0.16

> <PUBCHEM_EFFECTIVE_ROTOR_COUNT>
1

> <PUBCHEM_PHARMACOPHORE_FEATURES>
5
1 1 acceptor
1 1 donor
1 2 donor
1 3 acceptor
6 3 4 5 7 8 9 rings

> <PUBCHEM_HEAVY_ATOM_COUNT>
9

> <PUBCHEM_ATOM_DEF_STEREO_COUNT>
0

> <PUBCHEM_ATOM_UDEF_STEREO_COUNT>
0

> <PUBCHEM_BOND_DEF_STEREO_COUNT>
0

> <PUBCHEM_BOND_UDEF_STEREO_COUNT>
0

> <PUBCHEM_ISOTOPIC_ATOM_COUNT>
0

> <PUBCHEM_COMPONENT_COUNT>
1

> <PUBCHEM_CACTVS_TAUTO_COUNT>
3

> <PUBCHEM_CONFORMER_ID>
000666A200000002

> <PUBCHEM_MMFF94_ENERGY>
20.4252

> <PUBCHEM_FEATURE_SELFOVERLAP>
25.372

> <PUBCHEM_SHAPE_FINGERPRINT>
10857977 72 18411134761861976899
14325111 11 18411984637100365052
15310529 11 16588024632057756860
16714656 1 18410579487020407686
16945 1 18410298007833125775
20645464 45 17917424346114208378
21040471 1 18339088085630947806
23235685 24 18411700976080252789
23402655 69 18123455104700043613
23552423 10 17826800535767772884
2748010 2 18049730620098509229
29004967 10 18261967283654994411
369184 2 18411129243071672450
5084963 1 18270128911281357630

> <PUBCHEM_SHAPE_MULTIPOLES>
168.5
3.74
1.24
0.69
0.75
0.06
-0.02
-0.15
-0.63
-0.27
0.06
0.24
0.01
0.01

> <PUBCHEM_SHAPE_SELFOVERLAP>
347.24

> <PUBCHEM_SHAPE_VOLUME>
96.3

> <PUBCHEM_COORDINATE_TYPE>
2
5
10

$$$$
