44259720
  -OEChem-08282011523D

 48 50  0     0  0  0  0  0  0999 V2000
   -0.6349   -0.7758    0.1028 O   0  0  0  0  0  0  0  0  0  0  0  0
   -4.7720    1.7479    0.1333 O   0  0  0  0  0  0  0  0  0  0  0  0
    0.3574    2.7718   -0.0330 O   0  0  0  0  0  0  0  0  0  0  0  0
    4.2204   -0.3987   -2.4167 O   0  0  0  0  0  0  0  0  0  0  0  0
    4.3509   -0.2348    2.3678 O   0  0  0  0  0  0  0  0  0  0  0  0
   -4.8262   -2.9984    0.2602 O   0  0  0  0  0  0  0  0  0  0  0  0
    5.6574   -0.5489   -0.0542 O   0  0  0  0  0  0  0  0  0  0  0  0
   -2.4204    2.8865    0.0418 O   0  0  0  0  0  0  0  0  0  0  0  0
   -2.6726    0.5429    0.1165 C   0  0  0  0  0  0  0  0  0  0  0  0
    0.1109    0.3917    0.0655 C   0  0  0  0  0  0  0  0  0  0  0  0
   -2.0020   -0.6779    0.1330 C   0  0  0  0  0  0  0  0  0  0  0  0
    1.5635    0.1450    0.0341 C   0  0  0  0  0  0  0  0  0  0  0  0
   -0.4125    1.6310    0.0372 C   0  0  0  0  0  0  0  0  0  0  0  0
   -1.8870    1.7852    0.0638 C   0  0  0  0  0  0  0  0  0  0  0  0
   -4.0689    0.5814    0.1478 C   0  0  0  0  0  0  0  0  0  0  0  0
   -2.7246   -1.8705    0.1813 C   0  0  0  0  0  0  0  0  0  0  0  0
    2.2840    0.0698    1.2261 C   0  0  0  0  0  0  0  0  0  0  0  0
    2.2182   -0.0130   -1.1875 C   0  0  0  0  0  0  0  0  0  0  0  0
   -4.1187   -1.8362    0.2130 C   0  0  0  0  0  0  0  0  0  0  0  0
    3.5931   -0.2461   -1.2171 C   0  0  0  0  0  0  0  0  0  0  0  0
    3.6590   -0.1634    1.1966 C   0  0  0  0  0  0  0  0  0  0  0  0
   -4.7894   -0.6127    0.1962 C   0  0  0  0  0  0  0  0  0  0  0  0
    4.3134   -0.3212   -0.0251 C   0  0  0  0  0  0  0  0  0  0  0  0
   -5.1359    2.2693   -1.1436 C   0  0  0  0  0  0  0  0  0  0  0  0
    3.4105   -0.3078   -3.5874 C   0  0  0  0  0  0  0  0  0  0  0  0
    4.8913    0.9833    2.8764 C   0  0  0  0  0  0  0  0  0  0  0  0
   -6.2486   -2.8913    0.2906 C   0  0  0  0  0  0  0  0  0  0  0  0
    6.0838   -1.9090   -0.0192 C   0  0  0  0  0  0  0  0  0  0  0  0
   -2.2044   -2.8250    0.1942 H   0  0  0  0  0  0  0  0  0  0  0  0
    1.7804    0.1906    2.1829 H   0  0  0  0  0  0  0  0  0  0  0  0
    1.6071    0.0545   -2.0821 H   0  0  0  0  0  0  0  0  0  0  0  0
   -5.8710   -0.5264    0.2205 H   0  0  0  0  0  0  0  0  0  0  0  0
   -0.2487    3.5325   -0.0491 H   0  0  0  0  0  0  0  0  0  0  0  0
   -5.4879    3.2955   -1.0074 H   0  0  0  0  0  0  0  0  0  0  0  0
   -5.9495    1.6741   -1.5697 H   0  0  0  0  0  0  0  0  0  0  0  0
   -4.2849    2.2783   -1.8325 H   0  0  0  0  0  0  0  0  0  0  0  0
    4.0719   -0.4528   -4.4480 H   0  0  0  0  0  0  0  0  0  0  0  0
    2.9650    0.6871   -3.6943 H   0  0  0  0  0  0  0  0  0  0  0  0
    2.6626   -1.1074   -3.6244 H   0  0  0  0  0  0  0  0  0  0  0  0
    5.4183    0.7614    3.8084 H   0  0  0  0  0  0  0  0  0  0  0  0
    4.0905    1.6988    3.0886 H   0  0  0  0  0  0  0  0  0  0  0  0
    5.6032    1.4154    2.1661 H   0  0  0  0  0  0  0  0  0  0  0  0
   -6.6483   -3.9101    0.3264 H   0  0  0  0  0  0  0  0  0  0  0  0
   -6.6373   -2.4281   -0.6227 H   0  0  0  0  0  0  0  0  0  0  0  0
   -6.5948   -2.3809    1.1959 H   0  0  0  0  0  0  0  0  0  0  0  0
    7.1767   -1.9261   -0.0499 H   0  0  0  0  0  0  0  0  0  0  0  0
    5.7012   -2.4554   -0.8870 H   0  0  0  0  0  0  0  0  0  0  0  0
    5.7526   -2.3931    0.9049 H   0  0  0  0  0  0  0  0  0  0  0  0
  1 10  1  0  0  0  0
  1 11  1  0  0  0  0
  2 15  1  0  0  0  0
  2 24  1  0  0  0  0
  3 13  1  0  0  0  0
  3 33  1  0  0  0  0
  4 20  1  0  0  0  0
  4 25  1  0  0  0  0
  5 21  1  0  0  0  0
  5 26  1  0  0  0  0
  6 19  1  0  0  0  0
  6 27  1  0  0  0  0
  7 23  1  0  0  0  0
  7 28  1  0  0  0  0
  8 14  2  0  0  0  0
  9 11  2  0  0  0  0
  9 14  1  0  0  0  0
  9 15  1  0  0  0  0
 10 12  1  0  0  0  0
 10 13  2  0  0  0  0
 11 16  1  0  0  0  0
 12 17  2  0  0  0  0
 12 18  1  0  0  0  0
 13 14  1  0  0  0  0
 15 22  2  0  0  0  0
 16 19  2  0  0  0  0
 16 29  1  0  0  0  0
 17 21  1  0  0  0  0
 17 30  1  0  0  0  0
 18 20  2  0  0  0  0
 18 31  1  0  0  0  0
 19 22  1  0  0  0  0
 20 23  1  0  0  0  0
 21 23  2  0  0  0  0
 22 32  1  0  0  0  0
 24 34  1  0  0  0  0
 24 35  1  0  0  0  0
 24 36  1  0  0  0  0
 25 37  1  0  0  0  0
 25 38  1  0  0  0  0
 25 39  1  0  0  0  0
 26 40  1  0  0  0  0
 26 41  1  0  0  0  0
 26 42  1  0  0  0  0
 27 43  1  0  0  0  0
 27 44  1  0  0  0  0
 27 45  1  0  0  0  0
 28 46  1  0  0  0  0
 28 47  1  0  0  0  0
 28 48  1  0  0  0  0
M  END
> <PUBCHEM_COMPOUND_CID>
44259720

> <PUBCHEM_CONFORMER_RMSD>
0.8

> <PUBCHEM_CONFORMER_DIVERSEORDER>
5
8
7
6
4
1
10
9
2
3

> <PUBCHEM_MMFF94_PARTIAL_CHARGES>
33
1 -0.16
10 0.05
11 0.08
12 0.03
13 0.09
14 0.47
15 0.08
16 -0.15
17 -0.15
18 -0.15
19 0.08
2 -0.36
20 0.08
21 0.08
22 -0.15
23 0.08
24 0.28
25 0.28
26 0.28
27 0.28
28 0.28
29 0.15
3 -0.53
30 0.15
31 0.15
32 0.15
33 0.45
4 -0.36
5 -0.36
6 -0.36
7 -0.36
8 -0.57
9 0.09

> <PUBCHEM_EFFECTIVE_ROTOR_COUNT>
6

> <PUBCHEM_PHARMACOPHORE_FEATURES>
11
1 1 acceptor
1 2 acceptor
1 3 donor
1 4 acceptor
1 5 acceptor
1 6 acceptor
1 7 acceptor
1 8 acceptor
6 1 9 10 11 13 14 rings
6 12 17 18 20 21 23 rings
6 9 11 15 16 19 22 rings

> <PUBCHEM_HEAVY_ATOM_COUNT>
28

> <PUBCHEM_ATOM_DEF_STEREO_COUNT>
0

> <PUBCHEM_ATOM_UDEF_STEREO_COUNT>
0

> <PUBCHEM_BOND_DEF_STEREO_COUNT>
0

> <PUBCHEM_BOND_UDEF_STEREO_COUNT>
0

> <PUBCHEM_ISOTOPIC_ATOM_COUNT>
0

> <PUBCHEM_COMPONENT_COUNT>
1

> <PUBCHEM_CACTVS_TAUTO_COUNT>
2

> <PUBCHEM_CONFORMER_ID>
02A3598800000005

> <PUBCHEM_MMFF94_ENERGY>
134.4696

> <PUBCHEM_FEATURE_SELFOVERLAP>
55.875

> <PUBCHEM_SHAPE_FINGERPRINT>
10319926 262 18270102536351534266
10411042 1 18265335187446962451
11370993 144 16773529784600168243
11545043 162 18273214192269462250
11796584 16 18339925892634285126
12236239 1 17676492718195412100
12616971 3 16950281776096517073
13140716 1 18411698829335681049
13583140 156 17917420978807302366
13782708 43 17846218830606986030
14294032 229 17897443887861142965
14386348 63 17989210321887947790
15131766 46 16009901453076428333
15183329 4 16805313397189320543
16752209 62 18333737935175754467
17349148 13 17458341918852712426
17844677 252 18411987991607116409
18681886 176 18187087274103573694
20511986 3 17676486151095809364
21033648 29 17418082218270033387
21065201 7 18341615875885334626
21267235 1 18335425703368924139
22182313 1 18060426798321281967
23366157 5 17752486722464150413
23402539 116 18408602543681028151
23557571 272 18272656752779913984
23559900 14 18270405992680604612
23569914 152 12833925742109763859
3004659 81 17748824146205236042
3178227 256 16702306772197833142
335352 9 18409165533486530343
5104073 3 18131914862062119882
59682541 52 15068608422707719218
59755656 215 18266176128362246838
6823239 73 18272378572634352772
7237137 82 18186806898464548045
7495541 125 17989204842074109144
7970288 3 18337392754914045411
86090 222 17273163308395635174
9658208 31 17913224061225237961

> <PUBCHEM_SHAPE_MULTIPOLES>
529.27
14.62
2.67
2.02
0.1
0.03
0.96
-6.91
-1.21
5.26
-0.11
-5
0.13
1.69

> <PUBCHEM_SHAPE_SELFOVERLAP>
1151.208

> <PUBCHEM_SHAPE_VOLUME>
289.6

> <PUBCHEM_COORDINATE_TYPE>
2
5
10

$$$$
