11211418
  -OEChem-08282005143D

 59 60  0     1  0  0  0  0  0999 V2000
   -1.3653   -0.6100    1.1749 O   0  0  0  0  0  0  0  0  0  0  0  0
   -2.8639    0.9772    0.3511 O   0  0  0  0  0  0  0  0  0  0  0  0
    0.5351   -2.5394    0.7970 O   0  0  0  0  0  0  0  0  0  0  0  0
   -2.8621   -2.6493   -0.0937 O   0  0  0  0  0  0  0  0  0  0  0  0
   -5.6938   -1.8999   -0.4108 O   0  0  0  0  0  0  0  0  0  0  0  0
   -5.9195    0.7022   -1.6491 O   0  0  0  0  0  0  0  0  0  0  0  0
   -3.0603    3.5920   -0.4741 O   0  0  0  0  0  0  0  0  0  0  0  0
    6.7963   -0.7521   -1.7418 O   0  0  0  0  0  0  0  0  0  0  0  0
    2.1564    0.7272    1.6484 C   0  0  0  0  0  0  0  0  0  0  0  0
   -0.0607   -0.1863    0.7936 C   0  0  1  0  0  0  0  0  0  0  0  0
    0.7408    0.2106    2.0242 C   0  0  0  0  0  0  0  0  0  0  0  0
    0.6473   -1.3210    0.0565 C   0  0  1  0  0  0  0  0  0  0  0  0
    2.8153   -0.1354    0.5424 C   0  0  0  0  0  0  0  0  0  0  0  0
    2.1260   -1.0659   -0.1671 C   0  0  0  0  0  0  0  0  0  0  0  0
   -2.3241   -0.3278    0.1560 C   0  0  2  0  0  0  0  0  0  0  0  0
   -3.4273   -1.3824    0.2426 C   0  0  1  0  0  0  0  0  0  0  0  0
   -4.5742   -1.0676   -0.7178 C   0  0  2  0  0  0  0  0  0  0  0  0
    2.0341    2.1890    1.1576 C   0  0  0  0  0  0  0  0  0  0  0  0
    2.9797    0.7165    2.9593 C   0  0  0  0  0  0  0  0  0  0  0  0
   -5.0191    0.3894   -0.5896 C   0  0  1  0  0  0  0  0  0  0  0  0
   -3.8153    1.3325   -0.6538 C   0  0  1  0  0  0  0  0  0  0  0  0
    2.6993   -1.9516   -1.2515 C   0  0  0  0  0  0  0  0  0  0  0  0
    4.2291    0.1178    0.3183 C   0  0  0  0  0  0  0  0  0  0  0  0
   -4.2207    2.7829   -0.4111 C   0  0  0  0  0  0  0  0  0  0  0  0
    4.7736    0.1418   -0.8954 C   0  0  0  0  0  0  0  0  0  0  0  0
    6.2332    0.4038   -1.1271 C   0  0  2  0  0  0  0  0  0  0  0  0
    6.4402    1.6059   -2.0390 C   0  0  0  0  0  0  0  0  0  0  0  0
   -0.1352    0.6939    0.1412 H   0  0  0  0  0  0  0  0  0  0  0  0
    0.1864    0.9662    2.5969 H   0  0  0  0  0  0  0  0  0  0  0  0
    0.8130   -0.6548    2.6985 H   0  0  0  0  0  0  0  0  0  0  0  0
    0.1524   -1.4877   -0.9075 H   0  0  0  0  0  0  0  0  0  0  0  0
   -1.8514   -0.3819   -0.8343 H   0  0  0  0  0  0  0  0  0  0  0  0
   -3.8033   -1.4655    1.2692 H   0  0  0  0  0  0  0  0  0  0  0  0
   -4.2880   -1.3022   -1.7504 H   0  0  0  0  0  0  0  0  0  0  0  0
    3.0199    2.6428    1.0014 H   0  0  0  0  0  0  0  0  0  0  0  0
    1.4923    2.2586    0.2083 H   0  0  0  0  0  0  0  0  0  0  0  0
    1.5063    2.8099    1.8905 H   0  0  0  0  0  0  0  0  0  0  0  0
    3.9190    1.2721    2.8672 H   0  0  0  0  0  0  0  0  0  0  0  0
    2.4202    1.1910    3.7748 H   0  0  0  0  0  0  0  0  0  0  0  0
    3.2165   -0.3069    3.2728 H   0  0  0  0  0  0  0  0  0  0  0  0
   -5.5634    0.5226    0.3534 H   0  0  0  0  0  0  0  0  0  0  0  0
   -3.3234    1.2782   -1.6346 H   0  0  0  0  0  0  0  0  0  0  0  0
    2.5415   -1.5051   -2.2381 H   0  0  0  0  0  0  0  0  0  0  0  0
    2.1941   -2.9251   -1.2528 H   0  0  0  0  0  0  0  0  0  0  0  0
    3.7561   -2.1900   -1.1076 H   0  0  0  0  0  0  0  0  0  0  0  0
    4.8665    0.2533    1.1849 H   0  0  0  0  0  0  0  0  0  0  0  0
   -4.6658    2.9142    0.5809 H   0  0  0  0  0  0  0  0  0  0  0  0
   -4.9292    3.1373   -1.1652 H   0  0  0  0  0  0  0  0  0  0  0  0
   -0.4121   -2.6994    0.9493 H   0  0  0  0  0  0  0  0  0  0  0  0
   -2.5149   -2.5940   -1.0003 H   0  0  0  0  0  0  0  0  0  0  0  0
   -6.4081   -1.6664   -1.0282 H   0  0  0  0  0  0  0  0  0  0  0  0
   -5.4431    0.5937   -2.4900 H   0  0  0  0  0  0  0  0  0  0  0  0
    4.1710    0.0515   -1.7943 H   0  0  0  0  0  0  0  0  0  0  0  0
    6.7680    0.5657   -0.1850 H   0  0  0  0  0  0  0  0  0  0  0  0
   -2.4360    3.2641    0.1958 H   0  0  0  0  0  0  0  0  0  0  0  0
    7.5086    1.7582   -2.2276 H   0  0  0  0  0  0  0  0  0  0  0  0
    5.9704    1.4528   -3.0176 H   0  0  0  0  0  0  0  0  0  0  0  0
    6.0316    2.5197   -1.5956 H   0  0  0  0  0  0  0  0  0  0  0  0
    6.3734   -0.8724   -2.6095 H   0  0  0  0  0  0  0  0  0  0  0  0
  1 10  1  0  0  0  0
  1 15  1  0  0  0  0
  2 15  1  0  0  0  0
  2 21  1  0  0  0  0
  3 12  1  0  0  0  0
  3 49  1  0  0  0  0
  4 16  1  0  0  0  0
  4 50  1  0  0  0  0
  5 17  1  0  0  0  0
  5 51  1  0  0  0  0
  6 20  1  0  0  0  0
  6 52  1  0  0  0  0
  7 24  1  0  0  0  0
  7 55  1  0  0  0  0
  8 26  1  0  0  0  0
  8 59  1  0  0  0  0
  9 11  1  0  0  0  0
  9 13  1  0  0  0  0
  9 18  1  0  0  0  0
  9 19  1  0  0  0  0
 10 11  1  0  0  0  0
 10 12  1  0  0  0  0
 10 28  1  0  0  0  0
 11 29  1  0  0  0  0
 11 30  1  0  0  0  0
 12 14  1  0  0  0  0
 12 31  1  0  0  0  0
 13 14  2  0  0  0  0
 13 23  1  0  0  0  0
 14 22  1  0  0  0  0
 15 16  1  0  0  0  0
 15 32  1  0  0  0  0
 16 17  1  0  0  0  0
 16 33  1  0  0  0  0
 17 20  1  0  0  0  0
 17 34  1  0  0  0  0
 18 35  1  0  0  0  0
 18 36  1  0  0  0  0
 18 37  1  0  0  0  0
 19 38  1  0  0  0  0
 19 39  1  0  0  0  0
 19 40  1  0  0  0  0
 20 21  1  0  0  0  0
 20 41  1  0  0  0  0
 21 24  1  0  0  0  0
 21 42  1  0  0  0  0
 22 43  1  0  0  0  0
 22 44  1  0  0  0  0
 22 45  1  0  0  0  0
 23 25  2  0  0  0  0
 23 46  1  0  0  0  0
 24 47  1  0  0  0  0
 24 48  1  0  0  0  0
 25 26  1  0  0  0  0
 25 53  1  0  0  0  0
 26 27  1  0  0  0  0
 26 54  1  0  0  0  0
 27 56  1  0  0  0  0
 27 57  1  0  0  0  0
 27 58  1  0  0  0  0
M  END
> <PUBCHEM_COMPOUND_CID>
11211418

> <PUBCHEM_CONFORMER_RMSD>
0.8

> <PUBCHEM_CONFORMER_DIVERSEORDER>
1
36
123
97
69
46
112
13
8
124
77
56
92
129
138
72
133
110
142
16
15
66
51
79
47
33
64
120
88
70
41
143
35
99
84
93
145
132
17
94
114
62
75
39
63
109
117
45
127
83
126
90
85
2
139
130
26
48
100
7
111
136
104
106
91
118
4
19
50
113
135
87
105
131
74
53
80
146
134
28
30
82
89
144
116
107
86
14
67
96
9
44
98
23
78
128
21
137
12
49
40
68
58
34
101
25
76
37
43
103
3
141
42
31
147
54
59
121
73
140
24
52
57
102
119
125
81
29
65
60
27
20
22
5
61
122
10
71
55
95
32
115
6
38
18
108
11

> <PUBCHEM_MMFF94_PARTIAL_CHARGES>
31
1 -0.56
10 0.28
12 0.42
13 -0.14
14 -0.28
15 0.56
16 0.28
17 0.28
2 -0.56
20 0.28
21 0.28
22 0.14
23 -0.15
24 0.28
25 -0.29
26 0.42
3 -0.68
4 -0.68
46 0.15
49 0.4
5 -0.68
50 0.4
51 0.4
52 0.4
53 0.15
55 0.4
59 0.4
6 -0.68
7 -0.68
8 -0.68
9 0.14

> <PUBCHEM_EFFECTIVE_ROTOR_COUNT>
7

> <PUBCHEM_PHARMACOPHORE_FEATURES>
17
1 1 acceptor
1 2 acceptor
1 3 acceptor
1 3 donor
1 4 acceptor
1 4 donor
1 5 acceptor
1 5 donor
1 6 acceptor
1 6 donor
1 7 acceptor
1 7 donor
1 8 acceptor
1 8 donor
3 9 18 19 hydrophobe
6 2 15 16 17 20 21 rings
6 9 10 11 12 13 14 rings

> <PUBCHEM_HEAVY_ATOM_COUNT>
27

> <PUBCHEM_ATOM_DEF_STEREO_COUNT>
8

> <PUBCHEM_ATOM_UDEF_STEREO_COUNT>
0

> <PUBCHEM_BOND_DEF_STEREO_COUNT>
1

> <PUBCHEM_BOND_UDEF_STEREO_COUNT>
0

> <PUBCHEM_ISOTOPIC_ATOM_COUNT>
0

> <PUBCHEM_COMPONENT_COUNT>
1

> <PUBCHEM_CACTVS_TAUTO_COUNT>
1

> <PUBCHEM_CONFORMER_ID>
00AB129A00000001

> <PUBCHEM_MMFF94_ENERGY>
76.5318

> <PUBCHEM_FEATURE_SELFOVERLAP>
86.345

> <PUBCHEM_SHAPE_FINGERPRINT>
10 15 11386369266227481910
10366900 7 18272644645578310483
10498660 4 18263346063353192081
10670039 82 18334293158403921612
10693767 8 16988846034635458574
11961588 58 18041845129358479952
12236239 1 17022614282396054211
12403259 415 18201715193045614256
12596602 18 16660363679819293609
13668630 136 16056593275048374709
13690498 29 18199471133016938103
13782708 43 17774999150059860799
13914758 101 18187088335340284412
13944108 23 16539607290059607953
14347329 18 18407759218510593208
14739800 52 17604697997884810304
14931854 50 18342167813964972813
15183329 4 18261116253750957006
15348495 7 8214135231979063878
15961568 22 18118107289551816481
17913733 40 14273452596190174432
18608769 82 18336557105065874811
19784866 240 14764629720062363157
20645477 70 16630234883537871768
21033650 10 18335704914175209769
21637258 2 14261353510255959862
21792961 116 18271537424901521814
22122407 14 15285643157939893109
221357 26 18131062728093062601
22182313 1 17917416679555478616
22393880 68 18131062732018725770
2297311 6 18410855499637520215
23536364 44 17703235018289088528
23557571 272 18410289233790011371
23559900 14 18201996676701930097
2838139 119 17894358782850425652
312425 54 10519705553787784676
4098825 35 18337681806096131582
46194498 28 18201720716706288132
5104073 3 14273732975676223816
5281201 14 18131062723787474441
563151 74 14634863137243936169
59755656 215 18202559583610992410
6669772 16 16844717785764151096
6823239 73 18343292695616517200
7808743 9 18188209797338466381

> <PUBCHEM_SHAPE_MULTIPOLES>
508.69
14.97
2.67
1.93
4.09
0.93
0.73
2.41
-10.97
-2.86
-0.44
2.83
0.63
0.88

> <PUBCHEM_SHAPE_SELFOVERLAP>
1039.064

> <PUBCHEM_SHAPE_VOLUME>
292

> <PUBCHEM_COORDINATE_TYPE>
2
5
10

$$$$
