5070783
  -OEChem-08282013173D

 38 39  0     1  0  0  0  0  0999 V2000
   -3.9806    0.5129    0.8084 O   0  0  0  0  0  0  0  0  0  0  0  0
   -2.5163   -0.9122   -1.1367 O   0  0  0  0  0  0  0  0  0  0  0  0
    1.1513    1.4196    0.3900 O   0  0  0  0  0  0  0  0  0  0  0  0
   -0.7618   -2.9668    0.0940 O   0  0  0  0  0  0  0  0  0  0  0  0
    2.0878    3.5053    0.5241 O   0  0  0  0  0  0  0  0  0  0  0  0
   -3.1448    1.2067   -0.1308 C   0  0  0  0  0  0  0  0  0  0  0  0
   -1.9786    0.2583   -0.5080 C   0  0  1  0  0  0  0  0  0  0  0  0
   -1.1235   -0.2053    0.6817 C   0  0  0  0  0  0  0  0  0  0  0  0
    0.2040   -0.7789    0.2382 C   0  0  0  0  0  0  0  0  0  0  0  0
   -4.0222    1.5592   -1.3359 C   0  0  0  0  0  0  0  0  0  0  0  0
   -2.6760    2.4854    0.5684 C   0  0  0  0  0  0  0  0  0  0  0  0
    1.3050    0.0478    0.1036 C   0  0  0  0  0  0  0  0  0  0  0  0
    0.3078   -2.1318   -0.0320 C   0  0  0  0  0  0  0  0  0  0  0  0
    2.5370   -0.4574   -0.3038 C   0  0  0  0  0  0  0  0  0  0  0  0
    1.5360   -2.6562   -0.4419 C   0  0  0  0  0  0  0  0  0  0  0  0
    2.6495   -1.8221   -0.5780 C   0  0  0  0  0  0  0  0  0  0  0  0
    3.6613    0.4542   -0.4291 C   0  0  0  0  0  0  0  0  0  0  0  0
    3.5077    1.7522   -0.1557 C   0  0  0  0  0  0  0  0  0  0  0  0
    2.2135    2.3108    0.2777 C   0  0  0  0  0  0  0  0  0  0  0  0
   -0.9571   -3.5816    1.3657 C   0  0  0  0  0  0  0  0  0  0  0  0
   -1.3492    0.7596   -1.2537 H   0  0  0  0  0  0  0  0  0  0  0  0
   -1.6760   -0.9372    1.2809 H   0  0  0  0  0  0  0  0  0  0  0  0
   -0.9215    0.6179    1.3738 H   0  0  0  0  0  0  0  0  0  0  0  0
   -3.4443    2.0716   -2.1117 H   0  0  0  0  0  0  0  0  0  0  0  0
   -4.8554    2.2080   -1.0414 H   0  0  0  0  0  0  0  0  0  0  0  0
   -4.4773    0.6638   -1.7733 H   0  0  0  0  0  0  0  0  0  0  0  0
   -1.9295    3.0158   -0.0315 H   0  0  0  0  0  0  0  0  0  0  0  0
   -2.2576    2.2837    1.5594 H   0  0  0  0  0  0  0  0  0  0  0  0
   -3.5182    3.1662    0.7411 H   0  0  0  0  0  0  0  0  0  0  0  0
   -4.7176    1.1002    1.0488 H   0  0  0  0  0  0  0  0  0  0  0  0
   -3.1245   -1.3329   -0.5051 H   0  0  0  0  0  0  0  0  0  0  0  0
    1.6337   -3.7169   -0.6583 H   0  0  0  0  0  0  0  0  0  0  0  0
    3.5961   -2.2502   -0.8984 H   0  0  0  0  0  0  0  0  0  0  0  0
    4.6222    0.0647   -0.7465 H   0  0  0  0  0  0  0  0  0  0  0  0
    4.3424    2.4388   -0.2468 H   0  0  0  0  0  0  0  0  0  0  0  0
   -1.9878   -3.9432    1.4173 H   0  0  0  0  0  0  0  0  0  0  0  0
   -0.7885   -2.8811    2.1900 H   0  0  0  0  0  0  0  0  0  0  0  0
   -0.2808   -4.4359    1.4670 H   0  0  0  0  0  0  0  0  0  0  0  0
  1  6  1  0  0  0  0
  1 30  1  0  0  0  0
  2  7  1  0  0  0  0
  2 31  1  0  0  0  0
  3 12  1  0  0  0  0
  3 19  1  0  0  0  0
  4 13  1  0  0  0  0
  4 20  1  0  0  0  0
  5 19  2  0  0  0  0
  6  7  1  0  0  0  0
  6 10  1  0  0  0  0
  6 11  1  0  0  0  0
  7  8  1  0  0  0  0
  7 21  1  0  0  0  0
  8  9  1  0  0  0  0
  8 22  1  0  0  0  0
  8 23  1  0  0  0  0
  9 12  1  0  0  0  0
  9 13  2  0  0  0  0
 10 24  1  0  0  0  0
 10 25  1  0  0  0  0
 10 26  1  0  0  0  0
 11 27  1  0  0  0  0
 11 28  1  0  0  0  0
 11 29  1  0  0  0  0
 12 14  2  0  0  0  0
 13 15  1  0  0  0  0
 14 16  1  0  0  0  0
 14 17  1  0  0  0  0
 15 16  2  0  0  0  0
 15 32  1  0  0  0  0
 16 33  1  0  0  0  0
 17 18  2  0  0  0  0
 17 34  1  0  0  0  0
 18 19  1  0  0  0  0
 18 35  1  0  0  0  0
 20 36  1  0  0  0  0
 20 37  1  0  0  0  0
 20 38  1  0  0  0  0
M  END
> <PUBCHEM_COMPOUND_CID>
5070783

> <PUBCHEM_CONFORMER_RMSD>
0.6

> <PUBCHEM_CONFORMER_DIVERSEORDER>
1
29
18
23
6
30
15
17
36
26
12
34
14
21
5
33
22
35
25
10
24
19
20
3
9
16
7
27
4
32
8
11
28
38
2
31
13
37

> <PUBCHEM_MMFF94_PARTIAL_CHARGES>
24
1 -0.68
12 0.08
13 0.08
14 0.03
15 -0.15
16 -0.15
17 -0.18
18 -0.14
19 0.71
2 -0.68
20 0.28
3 -0.23
30 0.4
31 0.4
32 0.15
33 0.15
34 0.15
35 0.15
4 -0.36
5 -0.57
6 0.28
7 0.28
8 0.14
9 -0.14

> <PUBCHEM_EFFECTIVE_ROTOR_COUNT>
4

> <PUBCHEM_PHARMACOPHORE_FEATURES>
9
1 1 acceptor
1 1 donor
1 2 acceptor
1 2 donor
1 4 acceptor
1 5 acceptor
3 6 10 11 hydrophobe
6 3 12 14 17 18 19 rings
6 9 12 13 14 15 16 rings

> <PUBCHEM_HEAVY_ATOM_COUNT>
20

> <PUBCHEM_ATOM_DEF_STEREO_COUNT>
0

> <PUBCHEM_ATOM_UDEF_STEREO_COUNT>
1

> <PUBCHEM_BOND_DEF_STEREO_COUNT>
0

> <PUBCHEM_BOND_UDEF_STEREO_COUNT>
0

> <PUBCHEM_ISOTOPIC_ATOM_COUNT>
0

> <PUBCHEM_COMPONENT_COUNT>
1

> <PUBCHEM_CACTVS_TAUTO_COUNT>
1

> <PUBCHEM_CONFORMER_ID>
004D5FBF00000001

> <PUBCHEM_MMFF94_ENERGY>
74.809

> <PUBCHEM_FEATURE_SELFOVERLAP>
45.706

> <PUBCHEM_SHAPE_FINGERPRINT>
10608611 8 18195529409706003240
10871710 139 16747356232070859780
10906281 52 18198077889240082206
10967382 1 18340209600698096864
1100329 8 18262796255805343098
12403260 363 18196356238255350422
12553582 1 17401770722680032155
12730499 353 18188773826130096909
13140716 1 18194965373247318688
13464514 151 18412833460578077326
13583140 156 16806149090150064521
14250199 8 18341324479877334637
14790565 3 13945829536093681918
15490181 8 18339631343286196810
16945 1 18340211885768423930
18186145 218 18343306941816796140
18219364 16 18334301929017205713
20510252 161 17764309844058776064
21041028 32 17039230914048472779
21524375 3 18334853926508473606
21639500 275 18339353080955462749
22182313 1 18128558122615666654
22182937 141 18268438003984118041
2255824 54 18194958539769896463
22907989 373 17903369443220722180
2334 1 18267871584045293952
23558518 356 18117274976502584754
23598291 2 17843398480154850957
238 59 18339344293737101429
25 1 18410858724498505222
2748010 2 17981332497379614262
3060560 45 18266731398792524999
350125 39 18050300455085037304
352729 6 18268148845448311576
474 4 18410570648183648633
633830 44 18198912409442665389
7364860 26 18268990899340049444
7832392 63 18127407856573149173
81228 2 17679872784169146427
84936 182 18202275879831332616
90316 7 16683701119193425160
9709674 26 18270123542688652702
9981440 41 17982710159568664240

> <PUBCHEM_SHAPE_MULTIPOLES>
382.24
6.41
4.06
0.99
3.64
1.16
-0.03
-4.21
-1.37
-1.3
1.13
0.63
0.21
0.68

> <PUBCHEM_SHAPE_SELFOVERLAP>
809.135

> <PUBCHEM_SHAPE_VOLUME>
214.8

> <PUBCHEM_COORDINATE_TYPE>
2
5
10

$$$$
