1747800
  -OEChem-08282007463D

 58 59  0     1  0  0  0  0  0999 V2000
    0.4811   -2.5282   -1.4918 O   0  0  0  0  0  0  0  0  0  0  0  0
   -5.7388    1.2389   -1.9093 O   0  0  0  0  0  0  0  0  0  0  0  0
    0.8835    0.2202   -0.0526 C   0  0  1  0  0  0  0  0  0  0  0  0
    2.4228    0.0580    0.2048 C   0  0  2  0  0  0  0  0  0  0  0  0
    0.1368   -1.0888    0.4557 C   0  0  2  0  0  0  0  0  0  0  0  0
    3.2987    1.3284   -0.1204 C   0  0  0  0  0  0  0  0  0  0  0  0
    0.7403   -2.4205   -0.0904 C   0  0  2  0  0  0  0  0  0  0  0  0
    0.3619    1.4441    0.7740 C   0  0  0  0  0  0  0  0  0  0  0  0
    2.9793   -1.2396   -0.4094 C   0  0  0  0  0  0  0  0  0  0  0  0
    2.2584   -2.4678    0.1360 C   0  0  0  0  0  0  0  0  0  0  0  0
    2.4952    2.6374    0.0889 C   0  0  0  0  0  0  0  0  0  0  0  0
    1.4158    2.4883    1.1475 C   0  0  0  0  0  0  0  0  0  0  0  0
    0.5670    0.4840   -1.5462 C   0  0  0  0  0  0  0  0  0  0  0  0
   -1.3895   -1.0283    0.2378 C   0  0  0  0  0  0  0  0  0  0  0  0
    4.5081    1.3477    0.8522 C   0  0  0  0  0  0  0  0  0  0  0  0
    3.8855    1.3374   -1.5478 C   0  0  0  0  0  0  0  0  0  0  0  0
    0.1066   -3.6529    0.5752 C   0  0  0  0  0  0  0  0  0  0  0  0
   -1.9866    0.1754    0.9534 C   0  0  0  0  0  0  0  0  0  0  0  0
   -3.4834    0.2470    0.7527 C   0  0  0  0  0  0  0  0  0  0  0  0
   -4.3029   -0.5358    1.7450 C   0  0  0  0  0  0  0  0  0  0  0  0
   -4.0862    0.9293   -0.2403 C   0  0  0  0  0  0  0  0  0  0  0  0
   -5.5536    1.0256   -0.5149 C   0  0  0  0  0  0  0  0  0  0  0  0
    2.5056   -0.0853    1.2949 H   0  0  0  0  0  0  0  0  0  0  0  0
    0.2948   -1.1225    1.5456 H   0  0  0  0  0  0  0  0  0  0  0  0
   -0.0415    1.1638    1.7469 H   0  0  0  0  0  0  0  0  0  0  0  0
   -0.3186    2.0475    0.1652 H   0  0  0  0  0  0  0  0  0  0  0  0
    4.0445   -1.3438   -0.1742 H   0  0  0  0  0  0  0  0  0  0  0  0
    2.9021   -1.2254   -1.5017 H   0  0  0  0  0  0  0  0  0  0  0  0
    2.6813   -3.3527   -0.3566 H   0  0  0  0  0  0  0  0  0  0  0  0
    2.4742   -2.5614    1.2081 H   0  0  0  0  0  0  0  0  0  0  0  0
    2.0283    2.9664   -0.8465 H   0  0  0  0  0  0  0  0  0  0  0  0
    3.1679    3.4563    0.3746 H   0  0  0  0  0  0  0  0  0  0  0  0
    0.9286    3.4554    1.3230 H   0  0  0  0  0  0  0  0  0  0  0  0
    1.8820    2.2109    2.1016 H   0  0  0  0  0  0  0  0  0  0  0  0
    0.9507    1.4482   -1.8850 H   0  0  0  0  0  0  0  0  0  0  0  0
    0.9923   -0.2718   -2.2090 H   0  0  0  0  0  0  0  0  0  0  0  0
   -0.5085    0.5253   -1.7403 H   0  0  0  0  0  0  0  0  0  0  0  0
   -1.8609   -1.9235    0.6566 H   0  0  0  0  0  0  0  0  0  0  0  0
   -1.6535   -1.0209   -0.8247 H   0  0  0  0  0  0  0  0  0  0  0  0
    5.1522    2.2152    0.6664 H   0  0  0  0  0  0  0  0  0  0  0  0
    4.1821    1.3996    1.8968 H   0  0  0  0  0  0  0  0  0  0  0  0
    5.1296    0.4530    0.7419 H   0  0  0  0  0  0  0  0  0  0  0  0
    4.4259    2.2723   -1.7396 H   0  0  0  0  0  0  0  0  0  0  0  0
    4.6005    0.5216   -1.6995 H   0  0  0  0  0  0  0  0  0  0  0  0
    3.1132    1.2477   -2.3151 H   0  0  0  0  0  0  0  0  0  0  0  0
    0.6281   -4.5657    0.2624 H   0  0  0  0  0  0  0  0  0  0  0  0
    0.1570   -3.5923    1.6671 H   0  0  0  0  0  0  0  0  0  0  0  0
   -0.9353   -3.8011    0.2745 H   0  0  0  0  0  0  0  0  0  0  0  0
   -1.7356    1.1066    0.4859 H   0  0  0  0  0  0  0  0  0  0  0  0
   -1.7699    0.1849    2.0259 H   0  0  0  0  0  0  0  0  0  0  0  0
   -0.4711   -2.6685   -1.6236 H   0  0  0  0  0  0  0  0  0  0  0  0
   -5.3703   -0.3033    1.7250 H   0  0  0  0  0  0  0  0  0  0  0  0
   -4.1852   -1.6098    1.5693 H   0  0  0  0  0  0  0  0  0  0  0  0
   -3.9644   -0.3181    2.7643 H   0  0  0  0  0  0  0  0  0  0  0  0
   -3.4470    1.4904   -0.9215 H   0  0  0  0  0  0  0  0  0  0  0  0
   -5.9968    1.8686    0.0232 H   0  0  0  0  0  0  0  0  0  0  0  0
   -6.0909    0.1091   -0.2613 H   0  0  0  0  0  0  0  0  0  0  0  0
   -5.3747    2.1143   -2.1267 H   0  0  0  0  0  0  0  0  0  0  0  0
  1  7  1  0  0  0  0
  1 51  1  0  0  0  0
  2 22  1  0  0  0  0
  2 58  1  0  0  0  0
  3  4  1  0  0  0  0
  3  5  1  0  0  0  0
  3  8  1  0  0  0  0
  3 13  1  0  0  0  0
  4  6  1  0  0  0  0
  4  9  1  0  0  0  0
  4 23  1  0  0  0  0
  5  7  1  0  0  0  0
  5 14  1  0  0  0  0
  5 24  1  0  0  0  0
  6 11  1  0  0  0  0
  6 15  1  0  0  0  0
  6 16  1  0  0  0  0
  7 10  1  0  0  0  0
  7 17  1  0  0  0  0
  8 12  1  0  0  0  0
  8 25  1  0  0  0  0
  8 26  1  0  0  0  0
  9 10  1  0  0  0  0
  9 27  1  0  0  0  0
  9 28  1  0  0  0  0
 10 29  1  0  0  0  0
 10 30  1  0  0  0  0
 11 12  1  0  0  0  0
 11 31  1  0  0  0  0
 11 32  1  0  0  0  0
 12 33  1  0  0  0  0
 12 34  1  0  0  0  0
 13 35  1  0  0  0  0
 13 36  1  0  0  0  0
 13 37  1  0  0  0  0
 14 18  1  0  0  0  0
 14 38  1  0  0  0  0
 14 39  1  0  0  0  0
 15 40  1  0  0  0  0
 15 41  1  0  0  0  0
 15 42  1  0  0  0  0
 16 43  1  0  0  0  0
 16 44  1  0  0  0  0
 16 45  1  0  0  0  0
 17 46  1  0  0  0  0
 17 47  1  0  0  0  0
 17 48  1  0  0  0  0
 18 19  1  0  0  0  0
 18 49  1  0  0  0  0
 18 50  1  0  0  0  0
 19 20  1  0  0  0  0
 19 21  2  0  0  0  0
 20 52  1  0  0  0  0
 20 53  1  0  0  0  0
 20 54  1  0  0  0  0
 21 22  1  0  0  0  0
 21 55  1  0  0  0  0
 22 56  1  0  0  0  0
 22 57  1  0  0  0  0
M  END
> <PUBCHEM_COMPOUND_CID>
1747800

> <PUBCHEM_CONFORMER_RMSD>
0.8

> <PUBCHEM_CONFORMER_DIVERSEORDER>
1
7
8
5
4
6
3
2

> <PUBCHEM_MMFF94_PARTIAL_CHARGES>
11
1 -0.68
18 0.14
19 -0.28
2 -0.68
20 0.14
21 -0.29
22 0.42
51 0.4
55 0.15
58 0.4
7 0.28

> <PUBCHEM_EFFECTIVE_ROTOR_COUNT>
5.6

> <PUBCHEM_PHARMACOPHORE_FEATURES>
8
1 1 acceptor
1 1 donor
1 2 acceptor
1 2 donor
1 20 hydrophobe
3 6 15 16 hydrophobe
6 3 4 5 7 9 10 rings
6 3 4 6 8 11 12 rings

> <PUBCHEM_HEAVY_ATOM_COUNT>
22

> <PUBCHEM_ATOM_DEF_STEREO_COUNT>
4

> <PUBCHEM_ATOM_UDEF_STEREO_COUNT>
0

> <PUBCHEM_BOND_DEF_STEREO_COUNT>
1

> <PUBCHEM_BOND_UDEF_STEREO_COUNT>
0

> <PUBCHEM_ISOTOPIC_ATOM_COUNT>
0

> <PUBCHEM_COMPONENT_COUNT>
1

> <PUBCHEM_CACTVS_TAUTO_COUNT>
1

> <PUBCHEM_CONFORMER_ID>
001AAB5800000001

> <PUBCHEM_MMFF94_ENERGY>
99.6778

> <PUBCHEM_FEATURE_SELFOVERLAP>
40.61

> <PUBCHEM_SHAPE_FINGERPRINT>
10411042 1 17690564087118948931
10693767 8 17916869006600789070
10967382 1 18341342136492779994
1100329 8 18410857646916141778
11370993 70 18409447020351201713
11471102 20 18412263908790579385
12011746 2 18412553102456588668
12403259 415 18337399356483845225
12592029 89 18337966682681660138
12730499 353 18408327675176343531
12769317 202 18411130334109676625
12788726 201 17131276745412561865
12895836 83 17826536623456213828
13134695 92 18267019449501315527
13140716 1 18053667164232480392
13583140 156 18411702132033129803
14178342 30 17832135401078198096
1601671 61 18334021618034790940
16945 1 18053111897964865186
17134986 127 18339363092666797216
17138139 8 17414683718413580127
18186145 218 18129957774293284321
20157964 124 18337101277611662341
20645477 70 18342177722475324503
21033648 29 18336261361817514217
21524375 3 18270125758675505939
22289505 5 18265325102373238669
22393880 68 18201434826724386301
2334 1 17478053121749946616
23419403 2 17752750352067614934
23557571 272 17676214593683745089
23559900 14 18114749234957900714
238 59 18341890792768659699
25 1 18342187690608966066
2748010 2 18126873674827946290
3060560 45 18343021094832539908
335352 9 18411983568571289462
4072396 5 18337941325585030528
474 4 18413388756604468985
495365 180 18337099099577758105
5104073 3 18261402113757454443
53917941 68 18056183907292664396
59755656 215 18340773646416714206
633830 44 17845116054677236929
7364860 26 18341338790265064787
7471813 234 17984973809112664057
81228 2 17260461994952513619
81539 233 18408046199466682491
8272917 22 18342179916992525173
9981440 41 15691489649703054152

> <PUBCHEM_SHAPE_MULTIPOLES>
441.01
9.19
3.31
1.41
12.93
2.43
-0.36
-6.08
-1.69
-2.15
0.18
0.8
-0.33
1.1

> <PUBCHEM_SHAPE_SELFOVERLAP>
888.675

> <PUBCHEM_SHAPE_VOLUME>
257.8

> <PUBCHEM_COORDINATE_TYPE>
2
5
10

$$$$
