13343541
  -OEChem-08282013133D

 35 36  0     1  0  0  0  0  0999 V2000
    1.1493    1.3539   -0.4046 O   0  0  0  0  0  0  0  0  0  0  0  0
   -2.7835   -0.4500    1.2387 O   0  0  0  0  0  0  0  0  0  0  0  0
   -1.3041   -2.7483   -0.0300 O   0  0  0  0  0  0  0  0  0  0  0  0
    2.3425    3.3011   -0.5765 O   0  0  0  0  0  0  0  0  0  0  0  0
   -1.3234    0.0355   -0.6232 C   0  0  0  0  0  0  0  0  0  0  0  0
   -0.0849   -0.6944   -0.2199 C   0  0  0  0  0  0  0  0  0  0  0  0
   -2.0928    0.6152    0.5829 C   0  0  1  0  0  0  0  0  0  0  0  0
    1.1333   -0.0261   -0.1166 C   0  0  0  0  0  0  0  0  0  0  0  0
   -0.1321   -2.0587    0.0584 C   0  0  0  0  0  0  0  0  0  0  0  0
    2.3013   -0.6855    0.2569 C   0  0  0  0  0  0  0  0  0  0  0  0
   -3.0875    1.6854    0.1806 C   0  0  0  0  0  0  0  0  0  0  0  0
    1.0298   -2.7368    0.4347 C   0  0  0  0  0  0  0  0  0  0  0  0
    2.2450   -2.0531    0.5344 C   0  0  0  0  0  0  0  0  0  0  0  0
    3.5372    0.0733    0.3445 C   0  0  0  0  0  0  0  0  0  0  0  0
   -4.1595    1.3176   -0.8073 C   0  0  0  0  0  0  0  0  0  0  0  0
    3.5440    1.3802    0.0704 C   0  0  0  0  0  0  0  0  0  0  0  0
    2.3202    2.1008   -0.3268 C   0  0  0  0  0  0  0  0  0  0  0  0
   -3.0171    2.9234    0.6955 C   0  0  0  0  0  0  0  0  0  0  0  0
   -1.6177   -3.3335   -1.2921 C   0  0  0  0  0  0  0  0  0  0  0  0
   -1.9765   -0.6189   -1.2114 H   0  0  0  0  0  0  0  0  0  0  0  0
   -1.0539    0.8441   -1.3157 H   0  0  0  0  0  0  0  0  0  0  0  0
   -1.3840    1.0228    1.3142 H   0  0  0  0  0  0  0  0  0  0  0  0
    0.9963   -3.8009    0.6536 H   0  0  0  0  0  0  0  0  0  0  0  0
    3.1376   -2.5994    0.8290 H   0  0  0  0  0  0  0  0  0  0  0  0
    4.4490   -0.4368    0.6347 H   0  0  0  0  0  0  0  0  0  0  0  0
   -4.8386    2.1544   -1.0040 H   0  0  0  0  0  0  0  0  0  0  0  0
   -3.7207    1.0229   -1.7654 H   0  0  0  0  0  0  0  0  0  0  0  0
   -4.7660    0.4887   -0.4299 H   0  0  0  0  0  0  0  0  0  0  0  0
   -3.2879   -0.9473    0.5729 H   0  0  0  0  0  0  0  0  0  0  0  0
    4.4625    1.9534    0.1337 H   0  0  0  0  0  0  0  0  0  0  0  0
   -2.2477    3.1964    1.4100 H   0  0  0  0  0  0  0  0  0  0  0  0
   -3.7268    3.6942    0.4137 H   0  0  0  0  0  0  0  0  0  0  0  0
   -2.6893   -3.5494   -1.3132 H   0  0  0  0  0  0  0  0  0  0  0  0
   -1.0685   -4.2732   -1.4058 H   0  0  0  0  0  0  0  0  0  0  0  0
   -1.3769   -2.6656   -2.1254 H   0  0  0  0  0  0  0  0  0  0  0  0
  1  8  1  0  0  0  0
  1 17  1  0  0  0  0
  2  7  1  0  0  0  0
  2 29  1  0  0  0  0
  3  9  1  0  0  0  0
  3 19  1  0  0  0  0
  4 17  2  0  0  0  0
  5  6  1  0  0  0  0
  5  7  1  0  0  0  0
  5 20  1  0  0  0  0
  5 21  1  0  0  0  0
  6  8  1  0  0  0  0
  6  9  2  0  0  0  0
  7 11  1  0  0  0  0
  7 22  1  0  0  0  0
  8 10  2  0  0  0  0
  9 12  1  0  0  0  0
 10 13  1  0  0  0  0
 10 14  1  0  0  0  0
 11 15  1  0  0  0  0
 11 18  2  0  0  0  0
 12 13  2  0  0  0  0
 12 23  1  0  0  0  0
 13 24  1  0  0  0  0
 14 16  2  0  0  0  0
 14 25  1  0  0  0  0
 15 26  1  0  0  0  0
 15 27  1  0  0  0  0
 15 28  1  0  0  0  0
 16 17  1  0  0  0  0
 16 30  1  0  0  0  0
 18 31  1  0  0  0  0
 18 32  1  0  0  0  0
 19 33  1  0  0  0  0
 19 34  1  0  0  0  0
 19 35  1  0  0  0  0
M  END
> <PUBCHEM_COMPOUND_CID>
13343541

> <PUBCHEM_CONFORMER_RMSD>
0.6

> <PUBCHEM_CONFORMER_DIVERSEORDER>
2
22
3
21
17
16
14
19
12
9
8
20
15
10
1
6
18
7
4
5
11
13

> <PUBCHEM_MMFF94_PARTIAL_CHARGES>
26
1 -0.23
10 0.03
11 -0.28
12 -0.15
13 -0.15
14 -0.18
15 0.14
16 -0.14
17 0.71
18 -0.3
19 0.28
2 -0.68
23 0.15
24 0.15
25 0.15
29 0.4
3 -0.36
30 0.15
31 0.15
32 0.15
4 -0.57
5 0.14
6 -0.14
7 0.42
8 0.08
9 0.08

> <PUBCHEM_EFFECTIVE_ROTOR_COUNT>
4

> <PUBCHEM_PHARMACOPHORE_FEATURES>
6
1 2 acceptor
1 2 donor
1 3 acceptor
1 4 acceptor
6 1 8 10 14 16 17 rings
6 6 8 9 10 12 13 rings

> <PUBCHEM_HEAVY_ATOM_COUNT>
19

> <PUBCHEM_ATOM_DEF_STEREO_COUNT>
1

> <PUBCHEM_ATOM_UDEF_STEREO_COUNT>
0

> <PUBCHEM_BOND_DEF_STEREO_COUNT>
0

> <PUBCHEM_BOND_UDEF_STEREO_COUNT>
0

> <PUBCHEM_ISOTOPIC_ATOM_COUNT>
0

> <PUBCHEM_COMPONENT_COUNT>
1

> <PUBCHEM_CACTVS_TAUTO_COUNT>
1

> <PUBCHEM_CONFORMER_ID>
00CB9B3500000002

> <PUBCHEM_MMFF94_ENERGY>
63.5227

> <PUBCHEM_FEATURE_SELFOVERLAP>
30.475

> <PUBCHEM_SHAPE_FINGERPRINT>
10871710 139 17688885549706550381
10967382 1 18337107839678099084
11640471 11 17415563108366474321
11725454 13 16952224579257774237
12403259 327 16805324353424091761
12633257 1 17825107000214363905
12788726 201 17833264599150651984
12954195 1 17832165075197767612
13027679 85 16751848858051058959
13134695 92 17828198792467573991
13140716 1 18335410292925688610
13583140 156 17603862286973063635
14178342 30 18267283474316053258
14790565 3 18193849146018542844
15420108 30 17981870965550054115
15490181 7 18337969972573899647
16945 1 18410009948909219414
18186145 218 18201170844600871697
19591789 44 18122065300031299422
20157964 124 18050845512770024517
20510252 161 17907580585698086304
20671657 1 18409451354078769756
20739085 24 17905341627952900968
21501502 16 18193838378160602022
21524375 3 18408041792903933845
21639500 275 18263912255532363413
21665062 11 18048889489192366312
22094290 62 18409729517561757688
2334 1 18048878799382418828
23558518 356 18117276076399288962
2748010 2 17544175105313054678
3060560 45 18055069852673827807
350125 39 18264492965017115904
352729 6 18340490061914650749
474 4 18266740173817100265
5939293 188 18048599222422557008
6333272 397 18410292497648599793
7164475 11 18126278877333329438
7364860 26 18051979121377408265
7832392 63 18410853261659015070
81228 2 17548997987954761619
8272917 22 18053384293327958125
84936 182 18129651998434181632

> <PUBCHEM_SHAPE_MULTIPOLES>
367.53
6.19
4.07
0.92
2.94
0.95
-0.02
-4.43
0.41
-0.23
-0.73
0.45
0.2
-0.99

> <PUBCHEM_SHAPE_SELFOVERLAP>
778.561

> <PUBCHEM_SHAPE_VOLUME>
205.7

> <PUBCHEM_COORDINATE_TYPE>
2
5
10

$$$$
