21632979
  -OEChem-08282013423D

 65 67  0     1  0  0  0  0  0999 V2000
   -2.5585    0.0184   -0.2319 O   0  0  0  0  0  0  0  0  0  0  0  0
    0.9980   -2.0305   -0.0892 O   0  0  0  0  0  0  0  0  0  0  0  0
   -4.5914   -0.3244    0.9433 O   0  0  0  0  0  0  0  0  0  0  0  0
   -2.4563   -2.7447   -1.0748 O   0  0  0  0  0  0  0  0  0  0  0  0
    1.9383   -0.4458    1.3421 O   0  0  0  0  0  0  0  0  0  0  0  0
   -0.6558    0.4975    1.9661 O   0  0  0  0  0  0  0  0  0  0  0  0
   -4.4938    2.4646    1.6307 O   0  0  0  0  0  0  0  0  0  0  0  0
   -5.2612    3.3299   -0.9005 O   0  0  0  0  0  0  0  0  0  0  0  0
   -6.6868    1.0176   -1.7765 O   0  0  0  0  0  0  0  0  0  0  0  0
    1.3713   -4.5482   -1.1274 O   0  0  0  0  0  0  0  0  0  0  0  0
    4.7212    2.9724   -1.1555 O   0  0  0  0  0  0  0  0  0  0  0  0
    6.7185    1.4380   -2.3316 O   0  0  0  0  0  0  0  0  0  0  0  0
   -1.6304   -0.9355    0.2869 C   0  0  1  0  0  0  0  0  0  0  0  0
   -1.3100   -1.9359   -0.8239 C   0  0  1  0  0  0  0  0  0  0  0  0
   -0.3697   -0.2130    0.7616 C   0  0  2  0  0  0  0  0  0  0  0  0
   -3.4321    0.5004    0.7833 C   0  0  2  0  0  0  0  0  0  0  0  0
   -0.1355   -2.8325   -0.4250 C   0  0  1  0  0  0  0  0  0  0  0  0
   -3.8348    1.9416    0.4763 C   0  0  1  0  0  0  0  0  0  0  0  0
   -4.7720    2.0014   -0.7311 C   0  0  1  0  0  0  0  0  0  0  0  0
    0.7632   -1.1995    1.0452 C   0  0  1  0  0  0  0  0  0  0  0  0
   -5.9544    1.0481   -0.5539 C   0  0  2  0  0  0  0  0  0  0  0  0
   -5.4500   -0.3581   -0.2013 C   0  0  2  0  0  0  0  0  0  0  0  0
    0.2784   -3.7604   -1.5629 C   0  0  0  0  0  0  0  0  0  0  0  0
   -6.5958   -1.3106    0.1290 C   0  0  0  0  0  0  0  0  0  0  0  0
    2.8892   -1.2290    2.0464 C   0  0  0  0  0  0  0  0  0  0  0  0
    4.1221   -0.3873    2.3566 C   0  0  0  0  0  0  0  0  0  0  0  0
    4.8121    0.1023    1.1065 C   0  0  0  0  0  0  0  0  0  0  0  0
    4.4477    1.3245    0.5417 C   0  0  0  0  0  0  0  0  0  0  0  0
    5.8143   -0.6676    0.5163 C   0  0  0  0  0  0  0  0  0  0  0  0
    5.0857    1.7770   -0.6133 C   0  0  0  0  0  0  0  0  0  0  0  0
    6.4520   -0.2153   -0.6389 C   0  0  0  0  0  0  0  0  0  0  0  0
    6.0879    1.0070   -1.2036 C   0  0  0  0  0  0  0  0  0  0  0  0
    3.6886    3.6976   -0.4907 C   0  0  0  0  0  0  0  0  0  0  0  0
   -2.0992   -1.4805    1.1191 H   0  0  0  0  0  0  0  0  0  0  0  0
   -1.0835   -1.3919   -1.7490 H   0  0  0  0  0  0  0  0  0  0  0  0
   -0.0574    0.5322    0.0203 H   0  0  0  0  0  0  0  0  0  0  0  0
   -2.9521    0.4954    1.7648 H   0  0  0  0  0  0  0  0  0  0  0  0
   -0.3915   -3.4550    0.4433 H   0  0  0  0  0  0  0  0  0  0  0  0
   -2.9560    2.5687    0.2869 H   0  0  0  0  0  0  0  0  0  0  0  0
   -4.2246    1.7453   -1.6469 H   0  0  0  0  0  0  0  0  0  0  0  0
    0.5041   -1.8216    1.9134 H   0  0  0  0  0  0  0  0  0  0  0  0
   -6.6278    1.4300    0.2224 H   0  0  0  0  0  0  0  0  0  0  0  0
   -4.9000   -0.7891   -1.0478 H   0  0  0  0  0  0  0  0  0  0  0  0
    0.6086   -3.1853   -2.4345 H   0  0  0  0  0  0  0  0  0  0  0  0
   -0.5392   -4.4254   -1.8566 H   0  0  0  0  0  0  0  0  0  0  0  0
   -6.2047   -2.2987    0.3951 H   0  0  0  0  0  0  0  0  0  0  0  0
   -7.2806   -1.4245   -0.7165 H   0  0  0  0  0  0  0  0  0  0  0  0
   -7.1631   -0.9533    0.9956 H   0  0  0  0  0  0  0  0  0  0  0  0
   -2.6615   -3.2367   -0.2616 H   0  0  0  0  0  0  0  0  0  0  0  0
   -0.8852   -0.1523    2.6524 H   0  0  0  0  0  0  0  0  0  0  0  0
   -3.8492    2.4739    2.3587 H   0  0  0  0  0  0  0  0  0  0  0  0
   -4.4907    3.9142   -1.0027 H   0  0  0  0  0  0  0  0  0  0  0  0
   -6.1071    0.6513   -2.4660 H   0  0  0  0  0  0  0  0  0  0  0  0
    3.1674   -2.1041    1.4468 H   0  0  0  0  0  0  0  0  0  0  0  0
    2.4533   -1.5765    2.9906 H   0  0  0  0  0  0  0  0  0  0  0  0
    1.6209   -5.1272   -1.8677 H   0  0  0  0  0  0  0  0  0  0  0  0
    4.8267   -0.9698    2.9626 H   0  0  0  0  0  0  0  0  0  0  0  0
    3.8353    0.4794    2.9659 H   0  0  0  0  0  0  0  0  0  0  0  0
    3.6630    1.8801    1.0441 H   0  0  0  0  0  0  0  0  0  0  0  0
    6.1053   -1.6224    0.9461 H   0  0  0  0  0  0  0  0  0  0  0  0
    7.2307   -0.8255   -1.0886 H   0  0  0  0  0  0  0  0  0  0  0  0
    7.3811    0.7769   -2.5963 H   0  0  0  0  0  0  0  0  0  0  0  0
    2.7399    3.1498   -0.5001 H   0  0  0  0  0  0  0  0  0  0  0  0
    3.9897    3.9947    0.5196 H   0  0  0  0  0  0  0  0  0  0  0  0
    3.5271    4.6204   -1.0576 H   0  0  0  0  0  0  0  0  0  0  0  0
  1 13  1  0  0  0  0
  1 16  1  0  0  0  0
  2 17  1  0  0  0  0
  2 20  1  0  0  0  0
  3 16  1  0  0  0  0
  3 22  1  0  0  0  0
  4 14  1  0  0  0  0
  4 49  1  0  0  0  0
  5 20  1  0  0  0  0
  5 25  1  0  0  0  0
  6 15  1  0  0  0  0
  6 50  1  0  0  0  0
  7 18  1  0  0  0  0
  7 51  1  0  0  0  0
  8 19  1  0  0  0  0
  8 52  1  0  0  0  0
  9 21  1  0  0  0  0
  9 53  1  0  0  0  0
 10 23  1  0  0  0  0
 10 56  1  0  0  0  0
 11 30  1  0  0  0  0
 11 33  1  0  0  0  0
 12 32  1  0  0  0  0
 12 62  1  0  0  0  0
 13 14  1  0  0  0  0
 13 15  1  0  0  0  0
 13 34  1  0  0  0  0
 14 17  1  0  0  0  0
 14 35  1  0  0  0  0
 15 20  1  0  0  0  0
 15 36  1  0  0  0  0
 16 18  1  0  0  0  0
 16 37  1  0  0  0  0
 17 23  1  0  0  0  0
 17 38  1  0  0  0  0
 18 19  1  0  0  0  0
 18 39  1  0  0  0  0
 19 21  1  0  0  0  0
 19 40  1  0  0  0  0
 20 41  1  0  0  0  0
 21 22  1  0  0  0  0
 21 42  1  0  0  0  0
 22 24  1  0  0  0  0
 22 43  1  0  0  0  0
 23 44  1  0  0  0  0
 23 45  1  0  0  0  0
 24 46  1  0  0  0  0
 24 47  1  0  0  0  0
 24 48  1  0  0  0  0
 25 26  1  0  0  0  0
 25 54  1  0  0  0  0
 25 55  1  0  0  0  0
 26 27  1  0  0  0  0
 26 57  1  0  0  0  0
 26 58  1  0  0  0  0
 27 28  2  0  0  0  0
 27 29  1  0  0  0  0
 28 30  1  0  0  0  0
 28 59  1  0  0  0  0
 29 31  2  0  0  0  0
 29 60  1  0  0  0  0
 30 32  2  0  0  0  0
 31 32  1  0  0  0  0
 31 61  1  0  0  0  0
 33 63  1  0  0  0  0
 33 64  1  0  0  0  0
 33 65  1  0  0  0  0
M  END
> <PUBCHEM_COMPOUND_CID>
21632979

> <PUBCHEM_CONFORMER_RMSD>
1.2

> <PUBCHEM_CONFORMER_DIVERSEORDER>
1
95
12
113
34
103
20
92
110
117
59
31
99
58
29
49
109
72
101
5
87
81
63
96
77
44
136
47
112
70
22
123
102
66
142
76
89
93
38
138
132
88
65
33
48
53
137
104
105
131
32
16
14
75
74
69
13
11
108
50
7
73
115
19
43
24
106
139
120
26
35
28
46
82
141
56
121
118
54
85
37
122
4
52
10
125
134
107
129
100
126
128
114
25
111
84
17
68
45
91
36
30
79
94
135
2
57
62
90
51
127
15
78
61
116
140
71
98
9
124
83
42
80
18
23
39
86
133
97
6
8
40
130
60
41
67
21
119
55
64
27
3

> <PUBCHEM_MMFF94_PARTIAL_CHARGES>
42
1 -0.56
10 -0.68
11 -0.36
12 -0.53
13 0.28
14 0.28
15 0.28
16 0.56
17 0.28
18 0.28
19 0.28
2 -0.56
20 0.56
21 0.28
22 0.28
23 0.28
25 0.28
26 0.14
27 -0.14
28 -0.15
29 -0.15
3 -0.56
30 0.08
31 -0.15
32 0.08
33 0.28
4 -0.68
49 0.4
5 -0.56
50 0.4
51 0.4
52 0.4
53 0.4
56 0.4
59 0.15
6 -0.68
60 0.15
61 0.15
62 0.45
7 -0.68
8 -0.68
9 -0.68

> <PUBCHEM_EFFECTIVE_ROTOR_COUNT>
10.4

> <PUBCHEM_PHARMACOPHORE_FEATURES>
21
1 1 acceptor
1 10 acceptor
1 10 donor
1 11 acceptor
1 12 donor
1 2 acceptor
1 3 acceptor
1 4 acceptor
1 4 donor
1 5 acceptor
1 6 acceptor
1 6 donor
1 7 acceptor
1 7 donor
1 8 acceptor
1 8 donor
1 9 acceptor
1 9 donor
6 2 13 14 15 17 20 rings
6 27 28 29 30 31 32 rings
6 3 16 18 19 21 22 rings

> <PUBCHEM_HEAVY_ATOM_COUNT>
33

> <PUBCHEM_ATOM_DEF_STEREO_COUNT>
10

> <PUBCHEM_ATOM_UDEF_STEREO_COUNT>
0

> <PUBCHEM_BOND_DEF_STEREO_COUNT>
0

> <PUBCHEM_BOND_UDEF_STEREO_COUNT>
0

> <PUBCHEM_ISOTOPIC_ATOM_COUNT>
0

> <PUBCHEM_COMPONENT_COUNT>
1

> <PUBCHEM_CACTVS_TAUTO_COUNT>
3

> <PUBCHEM_CONFORMER_ID>
014A17D300000001

> <PUBCHEM_MMFF94_ENERGY>
102.2758

> <PUBCHEM_FEATURE_SELFOVERLAP>
106.701

> <PUBCHEM_SHAPE_FINGERPRINT>
10591671 39 18341891913834557203
10670039 82 18201722808397741648
10763959 59 18261393291704846808
10906281 52 18336271133273710041
11991303 11 18272368736758858127
12422481 6 17749388126818641428
13383665 225 18268720424856590109
13782708 43 12175609694781589669
14117953 113 18341334393268431262
1454969 45 18411695526632222871
14790565 3 18337950194244356714
14840074 17 18113338613221880116
15001296 14 18192423293452569776
15082195 135 18341047423931016699
15119646 104 12391513100757068360
15131766 46 17458906071576467780
15183329 4 18343589538249852656
15475509 35 10159108676269876685
15575132 122 18408603669178997173
15961568 22 18114462262745363685
19309040 13 17243607423314839558
19315092 285 12031238235235498414
20567600 247 11815885765039868093
20567600 70 8574418838297443822
20771845 171 18338228259175588703
21344244 181 15841260532418602063
21458453 9 16153715361427255800
22122407 14 17967818227842804976
23559900 14 17698712611443306803
249057 3 18341614837426512510
27425 322 18040722506723356198
2838139 119 18260827090092105757
394071 54 14562537292982052942
4015057 19 15338831014836754386
4058900 60 18338238163422947251
4173938 77 17823152274989506004
439807 62 11743543419645885629
613672 6 11746932070984074411

> <PUBCHEM_SHAPE_MULTIPOLES>
608.69
18.38
4.14
1.82
1.28
1.29
0.31
-12.39
-5.08
0.02
-2.35
-1.7
0.09
-1.56

> <PUBCHEM_SHAPE_SELFOVERLAP>
1267.062

> <PUBCHEM_SHAPE_VOLUME>
341.3

> <PUBCHEM_COORDINATE_TYPE>
2
5
10

$$$$
