101774200
  -OEChem-08282006123D

 56 59  0     1  0  0  0  0  0999 V2000
    1.5029    0.2973   -0.5440 O   0  0  0  0  0  0  0  0  0  0  0  0
    4.4596   -0.1383   -0.8125 O   0  0  0  0  0  0  0  0  0  0  0  0
   -1.9566    3.4975    0.2228 O   0  0  0  0  0  0  0  0  0  0  0  0
    4.8716   -2.3406   -0.0464 O   0  0  0  0  0  0  0  0  0  0  0  0
   -0.8596   -0.4642   -0.4050 C   0  0  2  0  0  0  0  0  0  0  0  0
    0.2118    0.6654    0.0057 C   0  0  2  0  0  0  0  0  0  0  0  0
   -2.2547   -0.0422    0.1917 C   0  0  2  0  0  0  0  0  0  0  0  0
   -3.3879   -1.1330    0.1853 C   0  0  0  0  0  0  0  0  0  0  0  0
   -0.2279    2.0290   -0.6321 C   0  0  1  0  0  0  0  0  0  0  0  0
   -0.4549   -1.8694    0.1258 C   0  0  0  0  0  0  0  0  0  0  0  0
    0.4524    0.8124    1.5255 C   0  0  0  0  0  0  0  0  0  0  0  0
    2.5195    0.3205    0.4745 C   0  0  1  0  0  0  0  0  0  0  0  0
   -2.7107    1.3160   -0.3700 C   0  0  0  0  0  0  0  0  0  0  0  0
    1.9394    1.0569    1.6606 C   0  0  0  0  0  0  0  0  0  0  0  0
   -2.8260   -2.4741    0.7133 C   0  0  0  0  0  0  0  0  0  0  0  0
   -1.5534   -2.9246    0.0135 C   0  0  0  0  0  0  0  0  0  0  0  0
   -0.8722   -0.5926   -1.9609 C   0  0  0  0  0  0  0  0  0  0  0  0
   -1.6487    2.3780   -0.1894 C   0  0  0  0  0  0  0  0  0  0  0  0
    2.9938   -1.0879    0.7778 C   0  0  0  0  0  0  0  0  0  0  0  0
   -4.0574   -1.3428   -1.1869 C   0  0  0  0  0  0  0  0  0  0  0  0
   -4.5215   -0.7138    1.1594 C   0  0  0  0  0  0  0  0  0  0  0  0
    3.7932    0.9202   -0.1005 C   0  0  0  0  0  0  0  0  0  0  0  0
    0.7021    3.2217   -0.3931 C   0  0  0  0  0  0  0  0  0  0  0  0
    3.8854   -1.3914   -0.4151 C   0  0  1  0  0  0  0  0  0  0  0  0
   -2.0624    0.1340    1.2612 H   0  0  0  0  0  0  0  0  0  0  0  0
   -0.2526    1.9235   -1.7228 H   0  0  0  0  0  0  0  0  0  0  0  0
   -0.1713   -1.8267    1.1800 H   0  0  0  0  0  0  0  0  0  0  0  0
    0.4252   -2.2343   -0.4168 H   0  0  0  0  0  0  0  0  0  0  0  0
    0.2070   -0.0959    2.0794 H   0  0  0  0  0  0  0  0  0  0  0  0
   -0.1375    1.6105    1.9875 H   0  0  0  0  0  0  0  0  0  0  0  0
   -3.6030    1.6664    0.1587 H   0  0  0  0  0  0  0  0  0  0  0  0
   -2.9628    1.2705   -1.4329 H   0  0  0  0  0  0  0  0  0  0  0  0
    2.1578    2.1272    1.6015 H   0  0  0  0  0  0  0  0  0  0  0  0
    2.3304    0.7120    2.6233 H   0  0  0  0  0  0  0  0  0  0  0  0
   -3.5819   -3.2649    0.6232 H   0  0  0  0  0  0  0  0  0  0  0  0
   -2.6110   -2.3818    1.7869 H   0  0  0  0  0  0  0  0  0  0  0  0
   -1.7575   -3.1764   -1.0313 H   0  0  0  0  0  0  0  0  0  0  0  0
   -1.2000   -3.8524    0.4801 H   0  0  0  0  0  0  0  0  0  0  0  0
   -1.3577    0.2469   -2.4625 H   0  0  0  0  0  0  0  0  0  0  0  0
   -1.3754   -1.4943   -2.3106 H   0  0  0  0  0  0  0  0  0  0  0  0
    0.1469   -0.6597   -2.3587 H   0  0  0  0  0  0  0  0  0  0  0  0
    2.2038   -1.8333    0.8755 H   0  0  0  0  0  0  0  0  0  0  0  0
    3.5707   -1.1069    1.7114 H   0  0  0  0  0  0  0  0  0  0  0  0
   -5.2565   -1.5192    1.2768 H   0  0  0  0  0  0  0  0  0  0  0  0
   -4.1270   -0.4834    2.1554 H   0  0  0  0  0  0  0  0  0  0  0  0
   -5.0661    0.1654    0.8012 H   0  0  0  0  0  0  0  0  0  0  0  0
   -4.8706   -2.0754   -1.1109 H   0  0  0  0  0  0  0  0  0  0  0  0
   -4.5024   -0.4179   -1.5672 H   0  0  0  0  0  0  0  0  0  0  0  0
   -3.3750   -1.7219   -1.9458 H   0  0  0  0  0  0  0  0  0  0  0  0
    3.6129    1.7366   -0.8040 H   0  0  0  0  0  0  0  0  0  0  0  0
    4.4755    1.2649    0.6842 H   0  0  0  0  0  0  0  0  0  0  0  0
    0.7096    3.5366    0.6547 H   0  0  0  0  0  0  0  0  0  0  0  0
    0.3631    4.0873   -0.9751 H   0  0  0  0  0  0  0  0  0  0  0  0
    1.7236    3.0064   -0.7117 H   0  0  0  0  0  0  0  0  0  0  0  0
    3.3137   -1.7863   -1.2613 H   0  0  0  0  0  0  0  0  0  0  0  0
    5.1603   -2.1573    0.8627 H   0  0  0  0  0  0  0  0  0  0  0  0
  1  6  1  0  0  0  0
  1 12  1  0  0  0  0
  2 22  1  0  0  0  0
  2 24  1  0  0  0  0
  3 18  2  0  0  0  0
  4 24  1  0  0  0  0
  4 56  1  0  0  0  0
  5  6  1  0  0  0  0
  5  7  1  0  0  0  0
  5 10  1  0  0  0  0
  5 17  1  0  0  0  0
  6  9  1  0  0  0  0
  6 11  1  0  0  0  0
  7  8  1  0  0  0  0
  7 13  1  0  0  0  0
  7 25  1  0  0  0  0
  8 15  1  0  0  0  0
  8 20  1  0  0  0  0
  8 21  1  0  0  0  0
  9 18  1  0  0  0  0
  9 23  1  0  0  0  0
  9 26  1  0  0  0  0
 10 16  1  0  0  0  0
 10 27  1  0  0  0  0
 10 28  1  0  0  0  0
 11 14  1  0  0  0  0
 11 29  1  0  0  0  0
 11 30  1  0  0  0  0
 12 14  1  0  0  0  0
 12 19  1  0  0  0  0
 12 22  1  0  0  0  0
 13 18  1  0  0  0  0
 13 31  1  0  0  0  0
 13 32  1  0  0  0  0
 14 33  1  0  0  0  0
 14 34  1  0  0  0  0
 15 16  1  0  0  0  0
 15 35  1  0  0  0  0
 15 36  1  0  0  0  0
 16 37  1  0  0  0  0
 16 38  1  0  0  0  0
 17 39  1  0  0  0  0
 17 40  1  0  0  0  0
 17 41  1  0  0  0  0
 19 24  1  0  0  0  0
 19 42  1  0  0  0  0
 19 43  1  0  0  0  0
 20 47  1  0  0  0  0
 20 48  1  0  0  0  0
 20 49  1  0  0  0  0
 21 44  1  0  0  0  0
 21 45  1  0  0  0  0
 21 46  1  0  0  0  0
 22 50  1  0  0  0  0
 22 51  1  0  0  0  0
 23 52  1  0  0  0  0
 23 53  1  0  0  0  0
 23 54  1  0  0  0  0
 24 55  1  0  0  0  0
M  END
> <PUBCHEM_COMPOUND_CID>
101774200

> <PUBCHEM_CONFORMER_RMSD>
0.6

> <PUBCHEM_CONFORMER_DIVERSEORDER>
1
2

> <PUBCHEM_MMFF94_PARTIAL_CHARGES>
12
1 -0.56
12 0.28
13 0.06
18 0.45
2 -0.56
22 0.28
24 0.56
3 -0.57
4 -0.68
56 0.4
6 0.28
9 0.06

> <PUBCHEM_EFFECTIVE_ROTOR_COUNT>
2.6

> <PUBCHEM_PHARMACOPHORE_FEATURES>
10
1 1 acceptor
1 2 acceptor
1 3 acceptor
1 4 acceptor
1 4 donor
3 8 20 21 hydrophobe
5 1 6 11 12 14 rings
5 2 12 19 22 24 rings
6 5 6 7 9 13 18 rings
6 5 7 8 10 15 16 rings

> <PUBCHEM_HEAVY_ATOM_COUNT>
24

> <PUBCHEM_ATOM_DEF_STEREO_COUNT>
6

> <PUBCHEM_ATOM_UDEF_STEREO_COUNT>
0

> <PUBCHEM_BOND_DEF_STEREO_COUNT>
0

> <PUBCHEM_BOND_UDEF_STEREO_COUNT>
0

> <PUBCHEM_ISOTOPIC_ATOM_COUNT>
0

> <PUBCHEM_COMPONENT_COUNT>
1

> <PUBCHEM_CACTVS_TAUTO_COUNT>
3

> <PUBCHEM_CONFORMER_ID>
0610F37800000001

> <PUBCHEM_MMFF94_ENERGY>
95.0841

> <PUBCHEM_FEATURE_SELFOVERLAP>
50.826

> <PUBCHEM_SHAPE_FINGERPRINT>
10369192 42 17414136226332807032
104564 63 18338795615733268163
10616163 171 18337111159809612402
10863032 1 18263924345643703296
10967382 1 18121216738593987089
11578080 2 16953060336459210596
12011746 2 18409163312366264335
12173636 292 18336540500321024508
12422481 6 18055658143382415827
12553582 1 18335978769906128643
12633257 1 17560534953386313963
12714826 92 18202286879405685276
12788726 201 18334295366138242816
13140716 1 18120660390311229171
13533116 47 17912643802980699611
13583140 156 16913969507067995019
14022347 108 18187913019577292619
14223421 5 18340761667146465520
14251751 93 18264489473060985362
14790565 3 18336839619224295101
14866123 147 18122626050518730467
14955137 171 18190195631998471619
15042514 8 18264775350437384936
15209289 33 18343587334815429563
16752209 62 18188190049447480815
16945 1 18336540633564977285
17349148 13 13686027556541174639
17357779 13 18339624733595103837
17804303 29 18342460343738726891
1813 80 18341909501261267980
19591789 44 18337954467689317570
19784866 135 18409164377127880834
20510252 161 18413106147640594529
20600515 1 18199205033880007399
20775438 99 17190335083742138687
20905425 154 18197497316297529591
21330990 113 18337119947191049419
21521721 280 8646767807760456143
22182313 1 18266436832687372152
22907989 373 18114453475083871381
2334 1 18336819780632483787
23402539 116 18343016701487145631
23419403 2 17417226793606967968
23557571 272 18343026584381233324
23559900 14 18338793541501603272
2748010 2 18339058441819736517
3286 77 17060051627193674459
335352 9 18409731729855128245
350125 39 18266463100996907393
5104073 3 18340763729263303800
5845 1 17836888507650357989
598444 67 18341610395533568571
7097593 13 17978235185998879051
7364860 26 17760931044721274521
81228 2 18337934762400527585
9709674 26 18341615872044392566

> <PUBCHEM_SHAPE_MULTIPOLES>
470.43
7.62
3.36
1.25
3.48
1.44
0.01
-4.65
0.05
-0.71
-0.09
-0.21
-0.03
0.32

> <PUBCHEM_SHAPE_SELFOVERLAP>
999.378

> <PUBCHEM_SHAPE_VOLUME>
261.6

> <PUBCHEM_COORDINATE_TYPE>
2
5
10

$$$$
