11603911
  -OEChem-08282006203D

 65 68  0     1  0  0  0  0  0999 V2000
   -1.0019   -0.0773   -0.3255 O   0  0  0  0  0  0  0  0  0  0  0  0
    1.7843    2.0773    0.8029 O   0  0  0  0  0  0  0  0  0  0  0  0
   -4.3852   -0.9314    0.5725 O   0  0  0  0  0  0  0  0  0  0  0  0
    1.4152    1.6765   -2.4188 O   0  0  0  0  0  0  0  0  0  0  0  0
   -5.5542    0.0915   -1.2149 O   0  0  0  0  0  0  0  0  0  0  0  0
    2.3746    3.6627   -0.7703 O   0  0  0  0  0  0  0  0  0  0  0  0
    1.0709   -0.9183    0.7880 C   0  0  2  0  0  0  0  0  0  0  0  0
    0.0590    0.3311    0.5837 C   0  0  1  0  0  0  0  0  0  0  0  0
    1.7347   -1.2569   -0.6099 C   0  0  2  0  0  0  0  0  0  0  0  0
    2.5526   -2.5986   -0.7027 C   0  0  0  0  0  0  0  0  0  0  0  0
    0.7848    1.5657   -0.0775 C   0  0  2  0  0  0  0  0  0  0  0  0
    0.2961   -2.1936    1.2441 C   0  0  0  0  0  0  0  0  0  0  0  0
   -0.6701    0.7301    1.8888 C   0  0  0  0  0  0  0  0  0  0  0  0
   -2.2880    0.1356    0.2588 C   0  0  1  0  0  0  0  0  0  0  0  0
    2.4877   -0.0471   -1.1783 C   0  0  0  0  0  0  0  0  0  0  0  0
   -2.0956    1.0228    1.4774 C   0  0  0  0  0  0  0  0  0  0  0  0
    1.7116   -3.7618   -0.1269 C   0  0  0  0  0  0  0  0  0  0  0  0
    1.1243   -3.4775    1.2460 C   0  0  0  0  0  0  0  0  0  0  0  0
    2.1084   -0.5744    1.8910 C   0  0  0  0  0  0  0  0  0  0  0  0
    1.5373    1.1139   -1.3298 C   0  0  0  0  0  0  0  0  0  0  0  0
   -3.2775    0.6918   -0.7448 C   0  0  0  0  0  0  0  0  0  0  0  0
    3.9298   -2.5472   -0.0138 C   0  0  0  0  0  0  0  0  0  0  0  0
    2.8247   -2.9496   -2.1905 C   0  0  0  0  0  0  0  0  0  0  0  0
   -0.1250    2.7479   -0.4377 C   0  0  0  0  0  0  0  0  0  0  0  0
   -2.9730   -1.1837    0.5957 C   0  0  0  0  0  0  0  0  0  0  0  0
   -4.6189    0.2771   -0.1656 C   0  0  2  0  0  0  0  0  0  0  0  0
    2.5069    3.1312    0.3238 C   0  0  0  0  0  0  0  0  0  0  0  0
    3.5120    3.5603    1.3494 C   0  0  0  0  0  0  0  0  0  0  0  0
   -6.8257   -0.2981   -0.7153 C   0  0  0  0  0  0  0  0  0  0  0  0
    0.8829   -1.4164   -1.2915 H   0  0  0  0  0  0  0  0  0  0  0  0
   -0.5501   -2.3676    0.5731 H   0  0  0  0  0  0  0  0  0  0  0  0
   -0.1184   -2.0626    2.2487 H   0  0  0  0  0  0  0  0  0  0  0  0
   -0.2082    1.5783    2.4039 H   0  0  0  0  0  0  0  0  0  0  0  0
   -0.6941   -0.0885    2.6128 H   0  0  0  0  0  0  0  0  0  0  0  0
    2.8821   -0.2629   -2.1759 H   0  0  0  0  0  0  0  0  0  0  0  0
    3.3359    0.2643   -0.5642 H   0  0  0  0  0  0  0  0  0  0  0  0
   -2.8094    0.8266    2.2844 H   0  0  0  0  0  0  0  0  0  0  0  0
   -2.1968    2.0818    1.2200 H   0  0  0  0  0  0  0  0  0  0  0  0
    2.3119   -4.6793   -0.0770 H   0  0  0  0  0  0  0  0  0  0  0  0
    0.8803   -3.9816   -0.8110 H   0  0  0  0  0  0  0  0  0  0  0  0
    1.9143   -3.4425    2.0017 H   0  0  0  0  0  0  0  0  0  0  0  0
    0.4756   -4.3145    1.5327 H   0  0  0  0  0  0  0  0  0  0  0  0
    1.6457   -0.0518    2.7339 H   0  0  0  0  0  0  0  0  0  0  0  0
    2.5705   -1.4581    2.3323 H   0  0  0  0  0  0  0  0  0  0  0  0
    2.9254    0.0533    1.5316 H   0  0  0  0  0  0  0  0  0  0  0  0
   -3.1177    0.2438   -1.7346 H   0  0  0  0  0  0  0  0  0  0  0  0
   -3.2186    1.7744   -0.8923 H   0  0  0  0  0  0  0  0  0  0  0  0
    3.8657   -2.4485    1.0687 H   0  0  0  0  0  0  0  0  0  0  0  0
    4.4900   -3.4714   -0.2025 H   0  0  0  0  0  0  0  0  0  0  0  0
    4.5422   -1.7229   -0.3927 H   0  0  0  0  0  0  0  0  0  0  0  0
    3.5435   -2.2643   -2.6505 H   0  0  0  0  0  0  0  0  0  0  0  0
    3.2438   -3.9586   -2.2856 H   0  0  0  0  0  0  0  0  0  0  0  0
    1.9030   -2.9210   -2.7822 H   0  0  0  0  0  0  0  0  0  0  0  0
   -0.3923    3.3298    0.4514 H   0  0  0  0  0  0  0  0  0  0  0  0
    0.2662    3.4592   -1.1688 H   0  0  0  0  0  0  0  0  0  0  0  0
   -1.0448    2.3976   -0.9103 H   0  0  0  0  0  0  0  0  0  0  0  0
   -2.7564   -1.9549   -0.1526 H   0  0  0  0  0  0  0  0  0  0  0  0
   -2.6957   -1.5825    1.5762 H   0  0  0  0  0  0  0  0  0  0  0  0
   -4.9844    1.0393    0.5339 H   0  0  0  0  0  0  0  0  0  0  0  0
    4.1989    2.7369    1.5610 H   0  0  0  0  0  0  0  0  0  0  0  0
    2.9987    3.8780    2.2604 H   0  0  0  0  0  0  0  0  0  0  0  0
    4.0887    4.4046    0.9611 H   0  0  0  0  0  0  0  0  0  0  0  0
   -7.2093    0.4441   -0.0084 H   0  0  0  0  0  0  0  0  0  0  0  0
   -6.7743   -1.2825   -0.2406 H   0  0  0  0  0  0  0  0  0  0  0  0
   -7.5185   -0.3618   -1.5589 H   0  0  0  0  0  0  0  0  0  0  0  0
  1  8  1  0  0  0  0
  1 14  1  0  0  0  0
  2 11  1  0  0  0  0
  2 27  1  0  0  0  0
  3 25  1  0  0  0  0
  3 26  1  0  0  0  0
  4 20  2  0  0  0  0
  5 26  1  0  0  0  0
  5 29  1  0  0  0  0
  6 27  2  0  0  0  0
  7  8  1  0  0  0  0
  7  9  1  0  0  0  0
  7 12  1  0  0  0  0
  7 19  1  0  0  0  0
  8 11  1  0  0  0  0
  8 13  1  0  0  0  0
  9 10  1  0  0  0  0
  9 15  1  0  0  0  0
  9 30  1  0  0  0  0
 10 17  1  0  0  0  0
 10 22  1  0  0  0  0
 10 23  1  0  0  0  0
 11 20  1  0  0  0  0
 11 24  1  0  0  0  0
 12 18  1  0  0  0  0
 12 31  1  0  0  0  0
 12 32  1  0  0  0  0
 13 16  1  0  0  0  0
 13 33  1  0  0  0  0
 13 34  1  0  0  0  0
 14 16  1  0  0  0  0
 14 21  1  0  0  0  0
 14 25  1  0  0  0  0
 15 20  1  0  0  0  0
 15 35  1  0  0  0  0
 15 36  1  0  0  0  0
 16 37  1  0  0  0  0
 16 38  1  0  0  0  0
 17 18  1  0  0  0  0
 17 39  1  0  0  0  0
 17 40  1  0  0  0  0
 18 41  1  0  0  0  0
 18 42  1  0  0  0  0
 19 43  1  0  0  0  0
 19 44  1  0  0  0  0
 19 45  1  0  0  0  0
 21 26  1  0  0  0  0
 21 46  1  0  0  0  0
 21 47  1  0  0  0  0
 22 48  1  0  0  0  0
 22 49  1  0  0  0  0
 22 50  1  0  0  0  0
 23 51  1  0  0  0  0
 23 52  1  0  0  0  0
 23 53  1  0  0  0  0
 24 54  1  0  0  0  0
 24 55  1  0  0  0  0
 24 56  1  0  0  0  0
 25 57  1  0  0  0  0
 25 58  1  0  0  0  0
 26 59  1  0  0  0  0
 27 28  1  0  0  0  0
 28 60  1  0  0  0  0
 28 61  1  0  0  0  0
 28 62  1  0  0  0  0
 29 63  1  0  0  0  0
 29 64  1  0  0  0  0
 29 65  1  0  0  0  0
M  END
> <PUBCHEM_COMPOUND_CID>
11603911

> <PUBCHEM_CONFORMER_RMSD>
0.8

> <PUBCHEM_CONFORMER_DIVERSEORDER>
1
3
2
4

> <PUBCHEM_MMFF94_PARTIAL_CHARGES>
16
1 -0.56
11 0.34
14 0.28
15 0.06
2 -0.43
20 0.45
25 0.28
26 0.56
27 0.66
28 0.06
29 0.28
3 -0.56
4 -0.57
5 -0.56
6 -0.57
8 0.28

> <PUBCHEM_EFFECTIVE_ROTOR_COUNT>
5.6

> <PUBCHEM_PHARMACOPHORE_FEATURES>
10
1 1 acceptor
1 3 acceptor
1 4 acceptor
1 5 acceptor
1 6 acceptor
3 10 22 23 hydrophobe
5 1 8 13 14 16 rings
5 3 14 21 25 26 rings
6 7 8 9 11 15 20 rings
6 7 9 10 12 17 18 rings

> <PUBCHEM_HEAVY_ATOM_COUNT>
29

> <PUBCHEM_ATOM_DEF_STEREO_COUNT>
6

> <PUBCHEM_ATOM_UDEF_STEREO_COUNT>
0

> <PUBCHEM_BOND_DEF_STEREO_COUNT>
0

> <PUBCHEM_BOND_UDEF_STEREO_COUNT>
0

> <PUBCHEM_ISOTOPIC_ATOM_COUNT>
0

> <PUBCHEM_COMPONENT_COUNT>
1

> <PUBCHEM_CACTVS_TAUTO_COUNT>
2

> <PUBCHEM_CONFORMER_ID>
00B10FC700000001

> <PUBCHEM_MMFF94_ENERGY>
123.6976

> <PUBCHEM_FEATURE_SELFOVERLAP>
50.83

> <PUBCHEM_SHAPE_FINGERPRINT>
10165383 225 17108816097103619360
10764073 3 16667064009216527920
10930396 42 18115285832305856122
11115154 58 18124882257496264993
11370993 70 18193274324084198001
11578080 2 17912067366376405832
12160290 23 16891751229023482192
12553582 1 17976278853680246723
12597179 24 18195245748638554736
12730499 353 18263934387820397987
12788726 201 17328311242462816192
13009979 54 17559690429503037819
13149001 5 18115894977793616330
133893 2 18263669340503238232
13533116 47 18411984655266574029
13681431 1 18335430006509280136
13911987 19 17897474742837437158
14068700 675 18200869561266763971
14081887 123 17688867541399236786
14787075 74 18266474126673984358
14790565 3 16825591385155978352
14863182 85 17988628727202368019
15238133 3 14707751937014809381
15439362 3 18336543936395367228
15664445 248 18268713809836450574
16945 1 18200612344528994224
17492 54 18042709263719966990
17818456 19 17558834984325472529
17909252 39 18335984173434000645
1813 80 18128540357871346487
20197701 30 18124306362184236232
20554085 129 17772734203367133424
20567600 347 18194117645091638491
20645477 70 18410851075673557863
20775438 99 18265037198057988791
21304303 282 17479995932678140252
22149856 69 18115887329711863859
23419403 2 17099421715474376920
23557571 272 17834955266162481402
23559900 14 18113903762630943351
238 59 18042707133014936235
25147074 1 17774735177602032105
25222932 49 16269362055336346439
2748010 2 17971782070308016642
283562 15 17901675860961151370
3380486 145 17833848074769001928
3886686 26 16169997677653864770
4017518 198 18057891441257873900
4340502 62 18266457801228836145
46194498 28 18336537262358476967
463206 1 18118413847411602315
484985 159 14537521981431613086
495365 180 18336258046191932009
513532 50 18186791492068612781
57527358 35 14998001149542844494
5845 1 17974289811839682176
59755656 215 18334857250924145092
6443956 14 18336548205397264744
6669772 16 18198624522327825020
70251023 43 18339368444517509291
7364860 26 18411981368651364912
7471813 234 18271523092057208013

> <PUBCHEM_SHAPE_MULTIPOLES>
561.59
8.39
4.56
1.78
18.13
0.99
0.2
-2.25
2.54
-7.05
-0.13
-0.86
-0.05
0.74

> <PUBCHEM_SHAPE_SELFOVERLAP>
1193.841

> <PUBCHEM_SHAPE_VOLUME>
312

> <PUBCHEM_COORDINATE_TYPE>
2
5
10

$$$$
