50994224
  -OEChem-08282008333D

 77 80  0     1  0  0  0  0  0999 V2000
   -7.0333    1.2598   -0.6927 O   0  0  0  0  0  0  0  0  0  0  0  0
    1.1104    0.2800   -0.6775 C   0  0  2  0  0  0  0  0  0  0  0  0
    0.4642   -0.9293    0.0757 C   0  0  1  0  0  0  0  0  0  0  0  0
   -1.6807    0.5430   -0.0003 C   0  0  2  0  0  0  0  0  0  0  0  0
   -3.1351    0.5378    0.6333 C   0  0  2  0  0  0  0  0  0  0  0  0
    2.6181   -0.0831   -0.5880 C   0  0  1  0  0  0  0  0  0  0  0  0
   -1.0529   -0.8567   -0.0136 C   0  0  0  0  0  0  0  0  0  0  0  0
    0.7248    1.6007    0.0137 C   0  0  0  0  0  0  0  0  0  0  0  0
    1.1954   -2.1149   -0.5941 C   0  0  0  0  0  0  0  0  0  0  0  0
   -3.9539   -0.5375   -0.1790 C   0  0  2  0  0  0  0  0  0  0  0  0
   -0.7293    1.6417    0.5417 C   0  0  0  0  0  0  0  0  0  0  0  0
    2.6366   -1.6113   -0.8310 C   0  0  0  0  0  0  0  0  0  0  0  0
    0.7136    0.3711   -2.1865 C   0  0  0  0  0  0  0  0  0  0  0  0
   -5.5166   -0.5223   -0.0322 C   0  0  0  0  0  0  0  0  0  0  0  0
    0.7994   -1.0135    1.5987 C   0  0  0  0  0  0  0  0  0  0  0  0
   -3.7943    1.9248    0.4277 C   0  0  0  0  0  0  0  0  0  0  0  0
   -3.3266   -1.9428   -0.0312 C   0  0  0  0  0  0  0  0  0  0  0  0
    3.5692    0.6734   -1.5082 C   0  0  2  0  0  0  0  0  0  0  0  0
   -1.8255   -1.9576   -0.0485 C   0  0  0  0  0  0  0  0  0  0  0  0
   -3.0502    0.2372    2.1487 C   0  0  0  0  0  0  0  0  0  0  0  0
   -5.2776    1.9467    0.7553 C   0  0  0  0  0  0  0  0  0  0  0  0
   -6.0179    0.9295   -0.0773 C   0  0  0  0  0  0  0  0  0  0  0  0
    4.9102   -0.0646   -1.7018 C   0  0  0  0  0  0  0  0  0  0  0  0
   -6.1423   -1.2818   -1.2296 C   0  0  0  0  0  0  0  0  0  0  0  0
   -6.0755   -1.1703    1.2440 C   0  0  0  0  0  0  0  0  0  0  0  0
    3.8333    2.0764   -0.9506 C   0  0  0  0  0  0  0  0  0  0  0  0
    5.6540   -0.2761   -0.4113 C   0  0  0  0  0  0  0  0  0  0  0  0
    6.8546    0.2659   -0.1506 C   0  0  0  0  0  0  0  0  0  0  0  0
    7.6274    0.1054    1.0742 C   0  0  0  0  0  0  0  0  0  0  0  0
    7.0792   -0.7402    2.1903 C   0  0  0  0  0  0  0  0  0  0  0  0
    8.8213    0.7085    1.2007 C   0  0  0  0  0  0  0  0  0  0  0  0
   -1.8300    0.8121   -1.0546 H   0  0  0  0  0  0  0  0  0  0  0  0
    2.9539    0.0832    0.4442 H   0  0  0  0  0  0  0  0  0  0  0  0
    1.3958    1.8057    0.8575 H   0  0  0  0  0  0  0  0  0  0  0  0
    0.8535    2.4450   -0.6733 H   0  0  0  0  0  0  0  0  0  0  0  0
    1.1931   -3.0237    0.0186 H   0  0  0  0  0  0  0  0  0  0  0  0
    0.7322   -2.3787   -1.5529 H   0  0  0  0  0  0  0  0  0  0  0  0
   -3.7870   -0.2597   -1.2343 H   0  0  0  0  0  0  0  0  0  0  0  0
   -1.1384    2.6318    0.3063 H   0  0  0  0  0  0  0  0  0  0  0  0
   -0.6904    1.6033    1.6347 H   0  0  0  0  0  0  0  0  0  0  0  0
    2.9133   -1.8847   -1.8540 H   0  0  0  0  0  0  0  0  0  0  0  0
    3.3256   -2.1169   -0.1471 H   0  0  0  0  0  0  0  0  0  0  0  0
    1.1518   -0.4342   -2.7855 H   0  0  0  0  0  0  0  0  0  0  0  0
    1.0452    1.3180   -2.6278 H   0  0  0  0  0  0  0  0  0  0  0  0
   -0.3613    0.3162   -2.3590 H   0  0  0  0  0  0  0  0  0  0  0  0
    0.4809   -0.1340    2.1621 H   0  0  0  0  0  0  0  0  0  0  0  0
    0.2982   -1.8777    2.0540 H   0  0  0  0  0  0  0  0  0  0  0  0
    1.8671   -1.1492    1.7965 H   0  0  0  0  0  0  0  0  0  0  0  0
   -3.2953    2.6826    1.0431 H   0  0  0  0  0  0  0  0  0  0  0  0
   -3.6657    2.2360   -0.6178 H   0  0  0  0  0  0  0  0  0  0  0  0
   -3.6425   -2.4100    0.9073 H   0  0  0  0  0  0  0  0  0  0  0  0
   -3.6748   -2.5899   -0.8437 H   0  0  0  0  0  0  0  0  0  0  0  0
    3.1568    0.7829   -2.5156 H   0  0  0  0  0  0  0  0  0  0  0  0
   -1.3652   -2.9417   -0.0299 H   0  0  0  0  0  0  0  0  0  0  0  0
   -2.4698    1.0032    2.6729 H   0  0  0  0  0  0  0  0  0  0  0  0
   -4.0255    0.2336    2.6327 H   0  0  0  0  0  0  0  0  0  0  0  0
   -2.5795   -0.7257    2.3649 H   0  0  0  0  0  0  0  0  0  0  0  0
   -5.4738    1.7543    1.8136 H   0  0  0  0  0  0  0  0  0  0  0  0
   -5.6807    2.9404    0.5281 H   0  0  0  0  0  0  0  0  0  0  0  0
    5.5288    0.5214   -2.3955 H   0  0  0  0  0  0  0  0  0  0  0  0
    4.7804   -1.0303   -2.1995 H   0  0  0  0  0  0  0  0  0  0  0  0
   -5.8247   -0.8484   -2.1850 H   0  0  0  0  0  0  0  0  0  0  0  0
   -7.2379   -1.2361   -1.2063 H   0  0  0  0  0  0  0  0  0  0  0  0
   -5.8683   -2.3415   -1.2277 H   0  0  0  0  0  0  0  0  0  0  0  0
   -5.7994   -2.2259    1.3243 H   0  0  0  0  0  0  0  0  0  0  0  0
   -7.1724   -1.1278    1.2466 H   0  0  0  0  0  0  0  0  0  0  0  0
   -5.7608   -0.6641    2.1558 H   0  0  0  0  0  0  0  0  0  0  0  0
    4.6502    2.5638   -1.4952 H   0  0  0  0  0  0  0  0  0  0  0  0
    2.9616    2.7224   -1.0713 H   0  0  0  0  0  0  0  0  0  0  0  0
    4.1020    2.0633    0.1109 H   0  0  0  0  0  0  0  0  0  0  0  0
    5.1859   -0.9191    0.3264 H   0  0  0  0  0  0  0  0  0  0  0  0
    7.3049    0.8976   -0.9150 H   0  0  0  0  0  0  0  0  0  0  0  0
    6.1241   -0.3401    2.5475 H   0  0  0  0  0  0  0  0  0  0  0  0
    7.7572   -0.7738    3.0505 H   0  0  0  0  0  0  0  0  0  0  0  0
    6.9285   -1.7728    1.8574 H   0  0  0  0  0  0  0  0  0  0  0  0
    9.4140    0.6019    2.1038 H   0  0  0  0  0  0  0  0  0  0  0  0
    9.2414    1.3239    0.4110 H   0  0  0  0  0  0  0  0  0  0  0  0
  1 22  2  0  0  0  0
  2  3  1  0  0  0  0
  2  6  1  0  0  0  0
  2  8  1  0  0  0  0
  2 13  1  0  0  0  0
  3  7  1  0  0  0  0
  3  9  1  0  0  0  0
  3 15  1  0  0  0  0
  4  5  1  0  0  0  0
  4  7  1  0  0  0  0
  4 11  1  0  0  0  0
  4 32  1  0  0  0  0
  5 10  1  0  0  0  0
  5 16  1  0  0  0  0
  5 20  1  0  0  0  0
  6 12  1  0  0  0  0
  6 18  1  0  0  0  0
  6 33  1  0  0  0  0
  7 19  2  0  0  0  0
  8 11  1  0  0  0  0
  8 34  1  0  0  0  0
  8 35  1  0  0  0  0
  9 12  1  0  0  0  0
  9 36  1  0  0  0  0
  9 37  1  0  0  0  0
 10 14  1  0  0  0  0
 10 17  1  0  0  0  0
 10 38  1  0  0  0  0
 11 39  1  0  0  0  0
 11 40  1  0  0  0  0
 12 41  1  0  0  0  0
 12 42  1  0  0  0  0
 13 43  1  0  0  0  0
 13 44  1  0  0  0  0
 13 45  1  0  0  0  0
 14 22  1  0  0  0  0
 14 24  1  0  0  0  0
 14 25  1  0  0  0  0
 15 46  1  0  0  0  0
 15 47  1  0  0  0  0
 15 48  1  0  0  0  0
 16 21  1  0  0  0  0
 16 49  1  0  0  0  0
 16 50  1  0  0  0  0
 17 19  1  0  0  0  0
 17 51  1  0  0  0  0
 17 52  1  0  0  0  0
 18 23  1  0  0  0  0
 18 26  1  0  0  0  0
 18 53  1  0  0  0  0
 19 54  1  0  0  0  0
 20 55  1  0  0  0  0
 20 56  1  0  0  0  0
 20 57  1  0  0  0  0
 21 22  1  0  0  0  0
 21 58  1  0  0  0  0
 21 59  1  0  0  0  0
 23 27  1  0  0  0  0
 23 60  1  0  0  0  0
 23 61  1  0  0  0  0
 24 62  1  0  0  0  0
 24 63  1  0  0  0  0
 24 64  1  0  0  0  0
 25 65  1  0  0  0  0
 25 66  1  0  0  0  0
 25 67  1  0  0  0  0
 26 68  1  0  0  0  0
 26 69  1  0  0  0  0
 26 70  1  0  0  0  0
 27 28  2  0  0  0  0
 27 71  1  0  0  0  0
 28 29  1  0  0  0  0
 28 72  1  0  0  0  0
 29 30  1  0  0  0  0
 29 31  2  0  0  0  0
 30 73  1  0  0  0  0
 30 74  1  0  0  0  0
 30 75  1  0  0  0  0
 31 76  1  0  0  0  0
 31 77  1  0  0  0  0
M  END
> <PUBCHEM_COMPOUND_CID>
50994224

> <PUBCHEM_CONFORMER_RMSD>
0.8

> <PUBCHEM_CONFORMER_DIVERSEORDER>
2
9
11
7
10
13
1
4
8
12
5
3
6

> <PUBCHEM_MMFF94_PARTIAL_CHARGES>
20
1 -0.57
14 0.06
17 0.14
19 -0.29
21 0.06
22 0.45
23 0.14
27 -0.29
28 -0.15
29 -0.14
3 0.14
30 0.14
31 -0.3
4 0.14
54 0.15
7 -0.28
71 0.15
72 0.15
76 0.15
77 0.15

> <PUBCHEM_EFFECTIVE_ROTOR_COUNT>
5.8

> <PUBCHEM_PHARMACOPHORE_FEATURES>
7
1 1 acceptor
1 26 hydrophobe
3 14 24 25 hydrophobe
5 2 3 6 9 12 rings
6 2 3 4 7 8 11 rings
6 4 5 7 10 17 19 rings
6 5 10 14 16 21 22 rings

> <PUBCHEM_HEAVY_ATOM_COUNT>
31

> <PUBCHEM_ATOM_DEF_STEREO_COUNT>
7

> <PUBCHEM_ATOM_UDEF_STEREO_COUNT>
0

> <PUBCHEM_BOND_DEF_STEREO_COUNT>
1

> <PUBCHEM_BOND_UDEF_STEREO_COUNT>
0

> <PUBCHEM_ISOTOPIC_ATOM_COUNT>
0

> <PUBCHEM_COMPONENT_COUNT>
1

> <PUBCHEM_CACTVS_TAUTO_COUNT>
2

> <PUBCHEM_CONFORMER_ID>
030A1C3000000002

> <PUBCHEM_MMFF94_ENERGY>
123.4488

> <PUBCHEM_FEATURE_SELFOVERLAP>
35.613

> <PUBCHEM_SHAPE_FINGERPRINT>
10 15 18412545431887662664
10930396 42 18199728350809268840
11089746 13 18334861627395346124
11135926 11 18040992930321874867
11719270 70 18411421692059641942
12236239 1 17967820465372520535
12788726 201 17773888502145999161
12838862 33 18339913840992657645
13782708 43 13912907356895197097
13811026 1 18342173396942350797
13914758 101 17385720266548959908
14028597 1 17895187762972529992
14251764 18 18187646925427140324
15131766 46 16446463743043400540
15183329 4 18259992569783443326
15328829 1 18040992925978837754
15361156 5 11095883770173165597
15461852 350 17703508891458054388
18608769 82 18338245972480359347
18681886 176 18202278134815282481
20511986 3 18341607075371154054
20554085 129 18059847351557056954
21130935 74 18201162053404892134
21150785 3 14045738227465606888
21403212 168 18040992926126452386
21521721 280 15410896262680236230
23559900 14 18059852887817055857
23569943 247 16371271248075957776
24771293 8 18131073723346984312
2838139 119 18113621188068947101
3004659 81 18335433382838989052
3383291 50 18339367456227599803
34797466 226 14548743911127169556
5104073 3 18339654325703755499
513202 73 16226037856764252350
5265222 85 9222930596480970232
5381727 24 16225767416175904889
59755656 520 16732986461462509843
6371009 1 18410578383520404364

> <PUBCHEM_SHAPE_MULTIPOLES>
632.1
20.39
2
1.67
21.78
0.05
0.24
2.74
5.76
-1.73
-0.07
1.67
-0.05
-0.63

> <PUBCHEM_SHAPE_SELFOVERLAP>
1326.951

> <PUBCHEM_SHAPE_VOLUME>
356.9

> <PUBCHEM_COORDINATE_TYPE>
2
5
10

$$$$
