13648247
  -OEChem-08282005433D

 39 40  0     1  0  0  0  0  0999 V2000
    3.9388   -1.1962    0.6462 O   0  0  0  0  0  0  0  0  0  0  0  0
    4.4406    0.7860   -0.3785 O   0  0  0  0  0  0  0  0  0  0  0  0
   -0.7385    0.2856   -0.0382 C   0  0  1  0  0  0  0  0  0  0  0  0
   -2.2092    0.9082    0.1139 C   0  0  0  0  0  0  0  0  0  0  0  0
   -3.1454   -0.0594    0.8997 C   0  0  0  0  0  0  0  0  0  0  0  0
   -0.0074    0.1997    1.3436 C   0  0  0  0  0  0  0  0  0  0  0  0
   -0.9010   -1.1527   -0.6125 C   0  0  0  0  0  0  0  0  0  0  0  0
    0.1614    1.2088   -0.9398 C   0  0  0  0  0  0  0  0  0  0  0  0
   -3.1981   -1.4714    0.3249 C   0  0  0  0  0  0  0  0  0  0  0  0
   -1.8085   -2.0730    0.1757 C   0  0  0  0  0  0  0  0  0  0  0  0
   -2.2297    2.2513    0.8868 C   0  0  0  0  0  0  0  0  0  0  0  0
   -2.8434    1.1899   -1.2743 C   0  0  0  0  0  0  0  0  0  0  0  0
    1.4070   -0.3920    1.2452 C   0  0  0  0  0  0  0  0  0  0  0  0
    1.6425    0.9397   -0.8569 C   0  0  0  0  0  0  0  0  0  0  0  0
    2.1903    0.2030    0.1186 C   0  0  0  0  0  0  0  0  0  0  0  0
   -0.3391   -1.6224   -1.7410 C   0  0  0  0  0  0  0  0  0  0  0  0
    3.6396   -0.0051    0.0865 C   0  0  0  0  0  0  0  0  0  0  0  0
   -4.1663    0.3440    0.9266 H   0  0  0  0  0  0  0  0  0  0  0  0
   -2.8241   -0.1203    1.9473 H   0  0  0  0  0  0  0  0  0  0  0  0
   -0.5781   -0.3766    2.0790 H   0  0  0  0  0  0  0  0  0  0  0  0
    0.0921    1.2079    1.7668 H   0  0  0  0  0  0  0  0  0  0  0  0
    0.0337    2.2603   -0.6626 H   0  0  0  0  0  0  0  0  0  0  0  0
   -0.1466    1.1391   -1.9898 H   0  0  0  0  0  0  0  0  0  0  0  0
   -3.7067   -1.4614   -0.6467 H   0  0  0  0  0  0  0  0  0  0  0  0
   -3.8020   -2.1084    0.9819 H   0  0  0  0  0  0  0  0  0  0  0  0
   -1.9031   -3.0543   -0.3056 H   0  0  0  0  0  0  0  0  0  0  0  0
   -1.3733   -2.2668    1.1625 H   0  0  0  0  0  0  0  0  0  0  0  0
   -1.6155    3.0188    0.4089 H   0  0  0  0  0  0  0  0  0  0  0  0
   -3.2498    2.6519    0.9383 H   0  0  0  0  0  0  0  0  0  0  0  0
   -1.8889    2.1354    1.9203 H   0  0  0  0  0  0  0  0  0  0  0  0
   -2.3231    2.0003   -1.7958 H   0  0  0  0  0  0  0  0  0  0  0  0
   -2.8288    0.3129   -1.9278 H   0  0  0  0  0  0  0  0  0  0  0  0
   -3.8898    1.5005   -1.1711 H   0  0  0  0  0  0  0  0  0  0  0  0
    1.3436   -1.4792    1.1162 H   0  0  0  0  0  0  0  0  0  0  0  0
    1.9202   -0.2118    2.1980 H   0  0  0  0  0  0  0  0  0  0  0  0
    2.2537    1.3741   -1.6436 H   0  0  0  0  0  0  0  0  0  0  0  0
    0.3076   -1.0295   -2.3743 H   0  0  0  0  0  0  0  0  0  0  0  0
   -0.5179   -2.6406   -2.0734 H   0  0  0  0  0  0  0  0  0  0  0  0
    4.9037   -1.3728    0.6437 H   0  0  0  0  0  0  0  0  0  0  0  0
  1 17  1  0  0  0  0
  1 39  1  0  0  0  0
  2 17  2  0  0  0  0
  3  4  1  0  0  0  0
  3  6  1  0  0  0  0
  3  7  1  0  0  0  0
  3  8  1  0  0  0  0
  4  5  1  0  0  0  0
  4 11  1  0  0  0  0
  4 12  1  0  0  0  0
  5  9  1  0  0  0  0
  5 18  1  0  0  0  0
  5 19  1  0  0  0  0
  6 13  1  0  0  0  0
  6 20  1  0  0  0  0
  6 21  1  0  0  0  0
  7 10  1  0  0  0  0
  7 16  2  0  0  0  0
  8 14  1  0  0  0  0
  8 22  1  0  0  0  0
  8 23  1  0  0  0  0
  9 10  1  0  0  0  0
  9 24  1  0  0  0  0
  9 25  1  0  0  0  0
 10 26  1  0  0  0  0
 10 27  1  0  0  0  0
 11 28  1  0  0  0  0
 11 29  1  0  0  0  0
 11 30  1  0  0  0  0
 12 31  1  0  0  0  0
 12 32  1  0  0  0  0
 12 33  1  0  0  0  0
 13 15  1  0  0  0  0
 13 34  1  0  0  0  0
 13 35  1  0  0  0  0
 14 15  2  0  0  0  0
 14 36  1  0  0  0  0
 15 17  1  0  0  0  0
 16 37  1  0  0  0  0
 16 38  1  0  0  0  0
M  END
> <PUBCHEM_COMPOUND_CID>
13648247

> <PUBCHEM_CONFORMER_RMSD>
0.6

> <PUBCHEM_CONFORMER_DIVERSEORDER>
1
4
3
2

> <PUBCHEM_MMFF94_PARTIAL_CHARGES>
15
1 -0.65
10 0.14
13 0.14
14 -0.29
15 -0.12
16 -0.3
17 0.71
2 -0.57
3 0.14
36 0.15
37 0.15
38 0.15
39 0.5
7 -0.28
8 0.14

> <PUBCHEM_EFFECTIVE_ROTOR_COUNT>
2.4

> <PUBCHEM_PHARMACOPHORE_FEATURES>
6
1 1 acceptor
1 2 acceptor
3 1 2 17 anion
3 4 11 12 hydrophobe
6 3 4 5 7 9 10 rings
6 3 6 8 13 14 15 rings

> <PUBCHEM_HEAVY_ATOM_COUNT>
17

> <PUBCHEM_ATOM_DEF_STEREO_COUNT>
1

> <PUBCHEM_ATOM_UDEF_STEREO_COUNT>
0

> <PUBCHEM_BOND_DEF_STEREO_COUNT>
0

> <PUBCHEM_BOND_UDEF_STEREO_COUNT>
0

> <PUBCHEM_ISOTOPIC_ATOM_COUNT>
0

> <PUBCHEM_COMPONENT_COUNT>
1

> <PUBCHEM_CACTVS_TAUTO_COUNT>
1

> <PUBCHEM_CONFORMER_ID>
00D0417700000001

> <PUBCHEM_MMFF94_ENERGY>
45.7925

> <PUBCHEM_FEATURE_SELFOVERLAP>
30.501

> <PUBCHEM_SHAPE_FINGERPRINT>
10863032 1 18260545572028370690
12173636 292 18272086084907736556
12186901 62 18409452483349220055
12491281 212 18336272249379813096
13024252 1 15140678081703919989
13214271 11 17312821567574769388
13221675 6 18040152924506246074
13581323 91 18343302591173122230
14993402 34 18261943073061724453
15076042 46 18412266163890963833
15219456 202 18058181543832040119
15309172 13 18263363607587811945
15375462 478 18336271235883341807
15775835 57 17822291249719935213
16752209 62 18263625381924309655
16945 1 18412832382298660153
17804303 29 18271814548369025018
19422 9 18260551117231894506
200 152 17676481804446240115
20510252 161 18201445769963634737
20871998 184 18272937149809549855
23402539 116 18342170060422532173
23419403 2 15891284020783635461
23493267 7 18342461387442166802
23559900 14 18201434766985175704
2748010 2 17979942439951846311
3286 77 16950565536053799564
34934 24 17749379326467788916
4175511 318 18334571330692972597
4340502 62 18056215579062312537
45790113 50 17532106040678077749
465052 167 18193286406350019363
568465 68 17130726035430111667
5706482 22 18200309914470162785
6992083 37 18260555480502299717
77492 1 18187653526116803268
81228 2 17199077248574436271
90525 40 18410856563977240918

> <PUBCHEM_SHAPE_MULTIPOLES>
338.11
6.11
1.94
1.35
5.69
0.16
0.18
-0.09
-0.67
-1.46
0.15
-0.25
0.04
-0.26

> <PUBCHEM_SHAPE_SELFOVERLAP>
701.513

> <PUBCHEM_SHAPE_VOLUME>
190.9

> <PUBCHEM_COORDINATE_TYPE>
2
5
10

$$$$
