5318214
  -OEChem-08282011463D

 34 36  0     0  0  0  0  0  0999 V2000
   -0.0245    0.5393   -0.1082 O   0  0  0  0  0  0  0  0  0  0  0  0
   -4.3278    2.5399   -0.2457 O   0  0  0  0  0  0  0  0  0  0  0  0
   -4.0254   -2.1739    0.2478 O   0  0  0  0  0  0  0  0  0  0  0  0
   -1.6077   -3.1914    0.3093 O   0  0  0  0  0  0  0  0  0  0  0  0
    4.5535    2.3878    0.8233 O   0  0  0  0  0  0  0  0  0  0  0  0
    6.3009    0.5076   -0.2430 O   0  0  0  0  0  0  0  0  0  0  0  0
   -1.9931   -0.8717    0.0756 C   0  0  0  0  0  0  0  0  0  0  0  0
   -1.3859    0.3748   -0.0666 C   0  0  0  0  0  0  0  0  0  0  0  0
    0.7803   -0.5843    0.0040 C   0  0  0  0  0  0  0  0  0  0  0  0
    2.2270   -0.2948   -0.0588 C   0  0  0  0  0  0  0  0  0  0  0  0
   -1.1427   -2.0668    0.1857 C   0  0  0  0  0  0  0  0  0  0  0  0
   -3.3851   -0.9796    0.1109 C   0  0  0  0  0  0  0  0  0  0  0  0
    0.3154   -1.8366    0.1380 C   0  0  0  0  0  0  0  0  0  0  0  0
   -2.1696    1.5238   -0.1749 C   0  0  0  0  0  0  0  0  0  0  0  0
   -3.5604    1.4203   -0.1399 C   0  0  0  0  0  0  0  0  0  0  0  0
   -4.1667    0.1714    0.0028 C   0  0  0  0  0  0  0  0  0  0  0  0
    2.7206    0.9229    0.4161 C   0  0  0  0  0  0  0  0  0  0  0  0
    3.1084   -1.2372   -0.5946 C   0  0  0  0  0  0  0  0  0  0  0  0
    4.0871    1.1963    0.3555 C   0  0  0  0  0  0  0  0  0  0  0  0
    4.4746   -0.9638   -0.6550 C   0  0  0  0  0  0  0  0  0  0  0  0
    4.9641    0.2529   -0.1799 C   0  0  0  0  0  0  0  0  0  0  0  0
   -5.7428    2.3633   -0.2025 C   0  0  0  0  0  0  0  0  0  0  0  0
    0.9466   -2.7119    0.2380 H   0  0  0  0  0  0  0  0  0  0  0  0
   -1.6999    2.4979   -0.2863 H   0  0  0  0  0  0  0  0  0  0  0  0
   -5.2424    0.0313    0.0360 H   0  0  0  0  0  0  0  0  0  0  0  0
    2.0551    1.6689    0.8450 H   0  0  0  0  0  0  0  0  0  0  0  0
    2.7645   -2.1871   -0.9952 H   0  0  0  0  0  0  0  0  0  0  0  0
    5.1466   -1.7054   -1.0788 H   0  0  0  0  0  0  0  0  0  0  0  0
   -3.3842   -2.8979    0.3158 H   0  0  0  0  0  0  0  0  0  0  0  0
   -6.0688    1.9576    0.7613 H   0  0  0  0  0  0  0  0  0  0  0  0
   -6.1002    1.7656   -1.0479 H   0  0  0  0  0  0  0  0  0  0  0  0
   -6.1951    3.3557   -0.2999 H   0  0  0  0  0  0  0  0  0  0  0  0
    5.5188    2.4067    0.7033 H   0  0  0  0  0  0  0  0  0  0  0  0
    6.7505   -0.2571   -0.6419 H   0  0  0  0  0  0  0  0  0  0  0  0
  1  8  1  0  0  0  0
  1  9  1  0  0  0  0
  2 15  1  0  0  0  0
  2 22  1  0  0  0  0
  3 12  1  0  0  0  0
  3 29  1  0  0  0  0
  4 11  2  0  0  0  0
  5 19  1  0  0  0  0
  5 33  1  0  0  0  0
  6 21  1  0  0  0  0
  6 34  1  0  0  0  0
  7  8  1  0  0  0  0
  7 11  1  0  0  0  0
  7 12  2  0  0  0  0
  8 14  2  0  0  0  0
  9 10  1  0  0  0  0
  9 13  2  0  0  0  0
 10 17  2  0  0  0  0
 10 18  1  0  0  0  0
 11 13  1  0  0  0  0
 12 16  1  0  0  0  0
 13 23  1  0  0  0  0
 14 15  1  0  0  0  0
 14 24  1  0  0  0  0
 15 16  2  0  0  0  0
 16 25  1  0  0  0  0
 17 19  1  0  0  0  0
 17 26  1  0  0  0  0
 18 20  2  0  0  0  0
 18 27  1  0  0  0  0
 19 21  2  0  0  0  0
 20 21  1  0  0  0  0
 20 28  1  0  0  0  0
 22 30  1  0  0  0  0
 22 31  1  0  0  0  0
 22 32  1  0  0  0  0
M  END
> <PUBCHEM_COMPOUND_CID>
5318214

> <PUBCHEM_CONFORMER_RMSD>
0.6

> <PUBCHEM_CONFORMER_DIVERSEORDER>
1
8
6
3
5
7
4
2

> <PUBCHEM_MMFF94_PARTIAL_CHARGES>
31
1 -0.16
10 0.03
11 0.47
12 0.08
13 -0.14
14 -0.15
15 0.08
16 -0.15
17 -0.15
18 -0.15
19 0.08
2 -0.36
20 -0.15
21 0.08
22 0.28
23 0.15
24 0.15
25 0.15
26 0.15
27 0.15
28 0.15
29 0.45
3 -0.53
33 0.45
34 0.45
4 -0.57
5 -0.53
6 -0.53
7 0.09
8 0.08
9 0.05

> <PUBCHEM_EFFECTIVE_ROTOR_COUNT>
2

> <PUBCHEM_PHARMACOPHORE_FEATURES>
9
1 1 acceptor
1 2 acceptor
1 3 donor
1 4 acceptor
1 5 donor
1 6 donor
6 1 7 8 9 11 13 rings
6 10 17 18 19 20 21 rings
6 7 8 12 14 15 16 rings

> <PUBCHEM_HEAVY_ATOM_COUNT>
22

> <PUBCHEM_ATOM_DEF_STEREO_COUNT>
0

> <PUBCHEM_ATOM_UDEF_STEREO_COUNT>
0

> <PUBCHEM_BOND_DEF_STEREO_COUNT>
0

> <PUBCHEM_BOND_UDEF_STEREO_COUNT>
0

> <PUBCHEM_ISOTOPIC_ATOM_COUNT>
0

> <PUBCHEM_COMPONENT_COUNT>
1

> <PUBCHEM_CACTVS_TAUTO_COUNT>
57

> <PUBCHEM_CONFORMER_ID>
0051264600000001

> <PUBCHEM_MMFF94_ENERGY>
75.3738

> <PUBCHEM_FEATURE_SELFOVERLAP>
45.704

> <PUBCHEM_SHAPE_FINGERPRINT>
10014705 185 18409730647164770573
10319926 262 18338502128445135786
10411042 1 17832710449934490779
10493431 412 18336551508833880749
10498660 4 18409445856299383489
10608611 8 18341331188700224552
10646746 165 18409449193757725022
11405975 8 18411135797228728682
11595378 159 16950834817766524292
12107183 9 18117547428243689002
12173636 292 18408882923741869271
12236239 1 17458343070209986902
12390115 104 18341626884255922473
12403259 415 18271806851840514840
12788726 201 16882752181712381666
12969540 114 18189319213550834421
13140716 1 18189613835496583147
13402501 40 18413387627033870816
13544592 145 18341061709562313054
14790565 3 18196376905733736425
15042514 8 18119535585832784123
15196674 1 18411136935110153702
17844677 252 18338524143872682736
200 152 17131837577319208442
20510252 161 18341897415534500931
20645477 56 18408324375781759885
20645477 70 17346330275970368718
21033648 29 18342730845116493616
21065198 57 18411138078199370802
21236236 1 18411982473233465327
21267235 1 18336556030606502307
21279426 13 18340773620130231622
21421861 104 17677881350300940642
23227448 37 18340767138676104036
23402539 116 18412539912010512766
23402655 69 18201999902502015556
23557571 272 18341339980350645054
23558518 356 17971193874663416672
23559900 14 18271525282865354678
283562 15 18409445925821006091
293599 30 18337392647602217965
3004659 81 18334863758860044582
335352 9 18338798893299905830
350125 39 18409736201048120769
3545911 37 18411984641480040196
4073 2 18187652431454174050
4214541 1 18411139147350665984
495365 180 17632282472502841362
5104073 3 18335420149263846634
5283173 99 18412543219225189696
59682541 35 18188787076552904121
59755656 520 18261669294487190087
633830 44 18342449292856381479
77779 3 18412265042983614382
9709674 26 18342182189094048270

> <PUBCHEM_SHAPE_MULTIPOLES>
417.53
12.45
2.77
0.69
5.45
0.47
0.01
-7.36
0.75
-2.61
-0.28
0.27
-0.03
1.13

> <PUBCHEM_SHAPE_SELFOVERLAP>
929.452

> <PUBCHEM_SHAPE_VOLUME>
221.9

> <PUBCHEM_COORDINATE_TYPE>
2
5
10

$$$$
