101685704
  -OEChem-08282006073D

 62 65  0     1  0  0  0  0  0999 V2000
   -1.2035   -0.1267    0.5030 O   0  0  0  0  0  0  0  0  0  0  0  0
    1.7374   -1.9277   -0.8333 O   0  0  0  0  0  0  0  0  0  0  0  0
   -4.6842   -0.9734    0.8441 O   0  0  0  0  0  0  0  0  0  0  0  0
    1.5970   -1.4872    2.4006 O   0  0  0  0  0  0  0  0  0  0  0  0
   -5.6513    1.1383    0.3878 O   0  0  0  0  0  0  0  0  0  0  0  0
    3.0270   -3.0145    0.7454 O   0  0  0  0  0  0  0  0  0  0  0  0
    0.6332    0.9466   -0.8065 C   0  0  2  0  0  0  0  0  0  0  0  0
   -0.1812   -0.4184   -0.4908 C   0  0  1  0  0  0  0  0  0  0  0  0
    1.3640    1.4099    0.5204 C   0  0  2  0  0  0  0  0  0  0  0  0
    2.0003    2.8497    0.5163 C   0  0  0  0  0  0  0  0  0  0  0  0
    0.7574   -1.5273    0.1236 C   0  0  2  0  0  0  0  0  0  0  0  0
   -0.3417    2.0952   -1.2131 C   0  0  0  0  0  0  0  0  0  0  0  0
   -0.9617   -0.9470   -1.7172 C   0  0  0  0  0  0  0  0  0  0  0  0
   -2.4969   -0.5239    0.0421 C   0  0  2  0  0  0  0  0  0  0  0  0
    2.3180    0.3266    1.0401 C   0  0  0  0  0  0  0  0  0  0  0  0
   -2.2942   -1.4128   -1.1737 C   0  0  0  0  0  0  0  0  0  0  0  0
    0.9647    3.8749   -0.0017 C   0  0  0  0  0  0  0  0  0  0  0  0
    0.3043    3.4763   -1.3114 C   0  0  0  0  0  0  0  0  0  0  0  0
    1.6078    0.7104   -1.9919 C   0  0  0  0  0  0  0  0  0  0  0  0
    1.5481   -0.9446    1.2958 C   0  0  0  0  0  0  0  0  0  0  0  0
   -3.3816    0.6765   -0.2455 C   0  0  0  0  0  0  0  0  0  0  0  0
    3.3072    2.9599   -0.2919 C   0  0  0  0  0  0  0  0  0  0  0  0
    2.3504    3.2766    1.9676 C   0  0  0  0  0  0  0  0  0  0  0  0
    0.0482   -2.8081    0.5837 C   0  0  0  0  0  0  0  0  0  0  0  0
   -3.3005   -1.1823    1.1529 C   0  0  0  0  0  0  0  0  0  0  0  0
   -4.7854    0.1178   -0.0818 C   0  0  1  0  0  0  0  0  0  0  0  0
    2.6339   -2.8632   -0.4034 C   0  0  0  0  0  0  0  0  0  0  0  0
    3.0832   -3.7016   -1.5615 C   0  0  0  0  0  0  0  0  0  0  0  0
    0.5607    1.4758    1.2726 H   0  0  0  0  0  0  0  0  0  0  0  0
   -1.1420    2.1759   -0.4720 H   0  0  0  0  0  0  0  0  0  0  0  0
   -0.8204    1.8818   -2.1742 H   0  0  0  0  0  0  0  0  0  0  0  0
   -0.4374   -1.7412   -2.2581 H   0  0  0  0  0  0  0  0  0  0  0  0
   -1.1584   -0.1597   -2.4496 H   0  0  0  0  0  0  0  0  0  0  0  0
    2.7644    0.6213    1.9948 H   0  0  0  0  0  0  0  0  0  0  0  0
    3.1442    0.1128    0.3582 H   0  0  0  0  0  0  0  0  0  0  0  0
   -3.0921   -1.3365   -1.9194 H   0  0  0  0  0  0  0  0  0  0  0  0
   -2.2345   -2.4677   -0.8903 H   0  0  0  0  0  0  0  0  0  0  0  0
    1.4304    4.8616   -0.1208 H   0  0  0  0  0  0  0  0  0  0  0  0
    0.1737    4.0031    0.7503 H   0  0  0  0  0  0  0  0  0  0  0  0
    1.0235    3.5236   -2.1341 H   0  0  0  0  0  0  0  0  0  0  0  0
   -0.4728    4.2120   -1.5532 H   0  0  0  0  0  0  0  0  0  0  0  0
    2.5289    0.2051   -1.6967 H   0  0  0  0  0  0  0  0  0  0  0  0
    1.9085    1.6340   -2.4874 H   0  0  0  0  0  0  0  0  0  0  0  0
    1.1473    0.1080   -2.7811 H   0  0  0  0  0  0  0  0  0  0  0  0
   -3.2337    1.1129   -1.2388 H   0  0  0  0  0  0  0  0  0  0  0  0
   -3.1786    1.4804    0.4738 H   0  0  0  0  0  0  0  0  0  0  0  0
    3.1638    2.8222   -1.3626 H   0  0  0  0  0  0  0  0  0  0  0  0
    3.7532    3.9548   -0.1701 H   0  0  0  0  0  0  0  0  0  0  0  0
    1.4952    3.1441    2.6398 H   0  0  0  0  0  0  0  0  0  0  0  0
    4.0547    2.2347    0.0449 H   0  0  0  0  0  0  0  0  0  0  0  0
    3.1913    2.7053    2.3733 H   0  0  0  0  0  0  0  0  0  0  0  0
    2.6375    4.3343    2.0074 H   0  0  0  0  0  0  0  0  0  0  0  0
   -0.3161   -3.3885   -0.2702 H   0  0  0  0  0  0  0  0  0  0  0  0
   -0.7890   -2.5848    1.2496 H   0  0  0  0  0  0  0  0  0  0  0  0
    0.6885   -3.4934    1.1494 H   0  0  0  0  0  0  0  0  0  0  0  0
   -3.0929   -0.7227    2.1266 H   0  0  0  0  0  0  0  0  0  0  0  0
   -3.1153   -2.2556    1.2529 H   0  0  0  0  0  0  0  0  0  0  0  0
   -5.1832   -0.2731   -1.0234 H   0  0  0  0  0  0  0  0  0  0  0  0
   -5.1742    1.6795    1.0383 H   0  0  0  0  0  0  0  0  0  0  0  0
    2.2256   -4.2206   -1.9969 H   0  0  0  0  0  0  0  0  0  0  0  0
    3.8019   -4.4481   -1.2117 H   0  0  0  0  0  0  0  0  0  0  0  0
    3.5715   -3.0703   -2.3080 H   0  0  0  0  0  0  0  0  0  0  0  0
  1  8  1  0  0  0  0
  1 14  1  0  0  0  0
  2 11  1  0  0  0  0
  2 27  1  0  0  0  0
  3 25  1  0  0  0  0
  3 26  1  0  0  0  0
  4 20  2  0  0  0  0
  5 26  1  0  0  0  0
  5 59  1  0  0  0  0
  6 27  2  0  0  0  0
  7  8  1  0  0  0  0
  7  9  1  0  0  0  0
  7 12  1  0  0  0  0
  7 19  1  0  0  0  0
  8 11  1  0  0  0  0
  8 13  1  0  0  0  0
  9 10  1  0  0  0  0
  9 15  1  0  0  0  0
  9 29  1  0  0  0  0
 10 17  1  0  0  0  0
 10 22  1  0  0  0  0
 10 23  1  0  0  0  0
 11 20  1  0  0  0  0
 11 24  1  0  0  0  0
 12 18  1  0  0  0  0
 12 30  1  0  0  0  0
 12 31  1  0  0  0  0
 13 16  1  0  0  0  0
 13 32  1  0  0  0  0
 13 33  1  0  0  0  0
 14 16  1  0  0  0  0
 14 21  1  0  0  0  0
 14 25  1  0  0  0  0
 15 20  1  0  0  0  0
 15 34  1  0  0  0  0
 15 35  1  0  0  0  0
 16 36  1  0  0  0  0
 16 37  1  0  0  0  0
 17 18  1  0  0  0  0
 17 38  1  0  0  0  0
 17 39  1  0  0  0  0
 18 40  1  0  0  0  0
 18 41  1  0  0  0  0
 19 42  1  0  0  0  0
 19 43  1  0  0  0  0
 19 44  1  0  0  0  0
 21 26  1  0  0  0  0
 21 45  1  0  0  0  0
 21 46  1  0  0  0  0
 22 47  1  0  0  0  0
 22 48  1  0  0  0  0
 22 50  1  0  0  0  0
 23 49  1  0  0  0  0
 23 51  1  0  0  0  0
 23 52  1  0  0  0  0
 24 53  1  0  0  0  0
 24 54  1  0  0  0  0
 24 55  1  0  0  0  0
 25 56  1  0  0  0  0
 25 57  1  0  0  0  0
 26 58  1  0  0  0  0
 27 28  1  0  0  0  0
 28 60  1  0  0  0  0
 28 61  1  0  0  0  0
 28 62  1  0  0  0  0
M  END
> <PUBCHEM_COMPOUND_CID>
101685704

> <PUBCHEM_CONFORMER_RMSD>
0.8

> <PUBCHEM_CONFORMER_DIVERSEORDER>
1
3
2

> <PUBCHEM_MMFF94_PARTIAL_CHARGES>
16
1 -0.56
11 0.34
14 0.28
15 0.06
2 -0.43
20 0.45
25 0.28
26 0.56
27 0.66
28 0.06
3 -0.56
4 -0.57
5 -0.68
59 0.4
6 -0.57
8 0.28

> <PUBCHEM_EFFECTIVE_ROTOR_COUNT>
4.6

> <PUBCHEM_PHARMACOPHORE_FEATURES>
11
1 1 acceptor
1 3 acceptor
1 4 acceptor
1 5 acceptor
1 5 donor
1 6 acceptor
3 10 22 23 hydrophobe
5 1 8 13 14 16 rings
5 3 14 21 25 26 rings
6 7 8 9 11 15 20 rings
6 7 9 10 12 17 18 rings

> <PUBCHEM_HEAVY_ATOM_COUNT>
28

> <PUBCHEM_ATOM_DEF_STEREO_COUNT>
6

> <PUBCHEM_ATOM_UDEF_STEREO_COUNT>
0

> <PUBCHEM_BOND_DEF_STEREO_COUNT>
0

> <PUBCHEM_BOND_UDEF_STEREO_COUNT>
0

> <PUBCHEM_ISOTOPIC_ATOM_COUNT>
0

> <PUBCHEM_COMPONENT_COUNT>
1

> <PUBCHEM_CACTVS_TAUTO_COUNT>
4

> <PUBCHEM_CONFORMER_ID>
060F99C800000001

> <PUBCHEM_MMFF94_ENERGY>
117.9769

> <PUBCHEM_FEATURE_SELFOVERLAP>
55.907

> <PUBCHEM_SHAPE_FINGERPRINT>
10382601 240 18188760755695568800
10863032 1 17129029557560204508
10948715 1 17981607379186165988
11640471 11 18056190521742896717
12156800 1 16768201409402370588
12160290 23 17185005299419280132
12166972 35 18059290947439191105
12173636 292 17620751025824943213
12422481 6 18120903249247973384
12633257 1 16951953167258075881
12788726 201 17903088728569968302
13134695 92 18269839726828022327
13140716 1 18193262225498799266
133893 2 18045749477257089766
13878862 14 18262499418120777741
13965767 371 18267285685876388721
14178342 30 18046622588616351539
14223421 5 18262804089735370259
14790565 3 18117845627370129412
14955137 171 18412261736059451706
15420108 30 18126263462837648072
1601671 61 18410294709345948980
16945 1 18201146737012781766
17492 89 18411419544882195615
17980427 26 18058720446290335164
1813 80 18199188386735130222
20600515 1 17608911115455533622
20739085 24 18260823851766223456
21033648 29 17343197664089494523
21041028 32 18266172821252850326
21524375 3 17758954114134778461
21731228 192 17905326582392156857
21756936 100 17691687105345147088
22149856 69 17978813508437462235
22182313 1 17910932674929697578
22907989 373 17549551708487856910
23352939 185 18129112130209761490
23419403 2 17607491744696713452
23557571 272 17978783511910735634
23558518 356 17326330429584931396
23559900 14 18187655700050951495
2748010 2 18043784581248033028
283562 15 17831875555304446030
3380486 145 17339517611456015850
3411729 13 18334293205674805600
35225 105 17112431454470645233
4340502 62 18048040959149368043
4409770 3 17329997893342048631
474 4 18194398033721353885
5104073 3 18335433366012164747
5265222 85 17686080666197079452
5845 1 18049688903107835942
5895379 119 17200533827062294753
59444896 2 17332586298713217852
6287921 2 18341047531516630875
6443956 14 18337675191819992039
7364860 26 18411984680060555015
81228 2 17545295515818974840
9981440 41 17981596388522962411

> <PUBCHEM_SHAPE_MULTIPOLES>
541.01
6.66
4.88
1.73
10.81
0.2
0.1
-1.33
1.5
-6.09
-0.54
-0.85
0.14
0.74

> <PUBCHEM_SHAPE_SELFOVERLAP>
1155.499

> <PUBCHEM_SHAPE_VOLUME>
299.2

> <PUBCHEM_COORDINATE_TYPE>
2
5
10

$$$$
