78385003
  -OEChem-08282013223D

 59 61  0     1  0  0  0  0  0999 V2000
    0.6231    2.1521   -1.1609 O   0  0  0  0  0  0  0  0  0  0  0  0
   -1.1719    2.0913    1.1863 O   0  0  0  0  0  0  0  0  0  0  0  0
    4.6892    0.3247    0.5044 O   0  0  0  0  0  0  0  0  0  0  0  0
    3.3228    2.3095   -0.8510 O   0  0  0  0  0  0  0  0  0  0  0  0
   -3.8755    2.0443    0.8772 O   0  0  0  0  0  0  0  0  0  0  0  0
   -5.0896   -0.0444   -0.4690 O   0  0  0  0  0  0  0  0  0  0  0  0
    0.5400   -3.3496    0.5179 C   0  0  1  0  0  0  0  0  0  0  0  0
   -0.6772   -3.3978   -0.4626 C   0  0  1  0  0  0  0  0  0  0  0  0
    0.5507   -2.1005    1.4312 C   0  0  0  0  0  0  0  0  0  0  0  0
   -0.7807   -2.1578   -1.3826 C   0  0  0  0  0  0  0  0  0  0  0  0
    1.2400   -0.9046    0.8056 C   0  0  0  0  0  0  0  0  0  0  0  0
   -1.5578   -1.0136   -0.7633 C   0  0  0  0  0  0  0  0  0  0  0  0
    0.5782   -4.5975    1.4181 C   0  0  0  0  0  0  0  0  0  0  0  0
   -0.6220   -4.6498   -1.3560 C   0  0  0  0  0  0  0  0  0  0  0  0
    0.5328    0.0996    0.1092 C   0  0  0  0  0  0  0  0  0  0  0  0
   -0.9280    0.0444   -0.0722 C   0  0  0  0  0  0  0  0  0  0  0  0
    2.6397   -0.8101    0.9215 C   0  0  0  0  0  0  0  0  0  0  0  0
   -2.9608   -1.0247   -0.8798 C   0  0  0  0  0  0  0  0  0  0  0  0
    1.2572    1.1784   -0.4363 C   0  0  0  0  0  0  0  0  0  0  0  0
   -1.7313    1.0689    0.4673 C   0  0  0  0  0  0  0  0  0  0  0  0
    3.3352    0.2646    0.3718 C   0  0  0  0  0  0  0  0  0  0  0  0
    2.6436    1.2605   -0.3053 C   0  0  0  0  0  0  0  0  0  0  0  0
   -3.1199    1.0464    0.3361 C   0  0  0  0  0  0  0  0  0  0  0  0
   -3.7350   -0.0022   -0.3358 C   0  0  0  0  0  0  0  0  0  0  0  0
    0.5184    1.9406   -2.5644 C   0  0  0  0  0  0  0  0  0  0  0  0
   -1.0519    1.8961    2.5909 C   0  0  0  0  0  0  0  0  0  0  0  0
    5.4689   -0.2918   -0.5191 C   0  0  0  0  0  0  0  0  0  0  0  0
    3.5156    3.4550   -0.0244 C   0  0  0  0  0  0  0  0  0  0  0  0
   -4.1538    3.1681    0.0452 C   0  0  0  0  0  0  0  0  0  0  0  0
    1.4620   -3.3638   -0.0797 H   0  0  0  0  0  0  0  0  0  0  0  0
   -1.5956   -3.4775    0.1353 H   0  0  0  0  0  0  0  0  0  0  0  0
    1.0898   -2.3192    2.3637 H   0  0  0  0  0  0  0  0  0  0  0  0
   -0.4629   -1.8500    1.7662 H   0  0  0  0  0  0  0  0  0  0  0  0
   -1.3012   -2.4210   -2.3141 H   0  0  0  0  0  0  0  0  0  0  0  0
    0.2116   -1.8340   -1.7186 H   0  0  0  0  0  0  0  0  0  0  0  0
   -0.3548   -4.7074    1.9807 H   0  0  0  0  0  0  0  0  0  0  0  0
    1.4031   -4.5369    2.1368 H   0  0  0  0  0  0  0  0  0  0  0  0
    0.7430   -5.5100    0.8382 H   0  0  0  0  0  0  0  0  0  0  0  0
    0.3168   -4.6928   -1.9182 H   0  0  0  0  0  0  0  0  0  0  0  0
   -1.4488   -4.6547   -2.0750 H   0  0  0  0  0  0  0  0  0  0  0  0
   -0.7184   -5.5688   -0.7712 H   0  0  0  0  0  0  0  0  0  0  0  0
    3.1909   -1.5859    1.4498 H   0  0  0  0  0  0  0  0  0  0  0  0
   -3.4457   -1.8459   -1.4046 H   0  0  0  0  0  0  0  0  0  0  0  0
   -5.3356   -0.8443   -0.9644 H   0  0  0  0  0  0  0  0  0  0  0  0
   -0.0803    2.7516   -2.9882 H   0  0  0  0  0  0  0  0  0  0  0  0
    0.0217    0.9910   -2.7859 H   0  0  0  0  0  0  0  0  0  0  0  0
    1.5083    1.9600   -3.0308 H   0  0  0  0  0  0  0  0  0  0  0  0
   -0.5141    2.7512    3.0098 H   0  0  0  0  0  0  0  0  0  0  0  0
   -0.4870    0.9867    2.8177 H   0  0  0  0  0  0  0  0  0  0  0  0
   -2.0405    1.8457    3.0577 H   0  0  0  0  0  0  0  0  0  0  0  0
    5.2584   -1.3649   -0.5671 H   0  0  0  0  0  0  0  0  0  0  0  0
    5.2693    0.1743   -1.4892 H   0  0  0  0  0  0  0  0  0  0  0  0
    6.5256   -0.1529   -0.2751 H   0  0  0  0  0  0  0  0  0  0  0  0
    4.1069    3.1968    0.8598 H   0  0  0  0  0  0  0  0  0  0  0  0
    2.5526    3.8782    0.2787 H   0  0  0  0  0  0  0  0  0  0  0  0
    4.0609    4.2063   -0.6021 H   0  0  0  0  0  0  0  0  0  0  0  0
   -4.7548    3.8786    0.6192 H   0  0  0  0  0  0  0  0  0  0  0  0
   -4.7231    2.8621   -0.8382 H   0  0  0  0  0  0  0  0  0  0  0  0
   -3.2254    3.6615   -0.2593 H   0  0  0  0  0  0  0  0  0  0  0  0
  1 19  1  0  0  0  0
  1 25  1  0  0  0  0
  2 20  1  0  0  0  0
  2 26  1  0  0  0  0
  3 21  1  0  0  0  0
  3 27  1  0  0  0  0
  4 22  1  0  0  0  0
  4 28  1  0  0  0  0
  5 23  1  0  0  0  0
  5 29  1  0  0  0  0
  6 24  1  0  0  0  0
  6 44  1  0  0  0  0
  7  8  1  0  0  0  0
  7  9  1  0  0  0  0
  7 13  1  0  0  0  0
  7 30  1  0  0  0  0
  8 10  1  0  0  0  0
  8 14  1  0  0  0  0
  8 31  1  0  0  0  0
  9 11  1  0  0  0  0
  9 32  1  0  0  0  0
  9 33  1  0  0  0  0
 10 12  1  0  0  0  0
 10 34  1  0  0  0  0
 10 35  1  0  0  0  0
 11 15  1  0  0  0  0
 11 17  2  0  0  0  0
 12 16  1  0  0  0  0
 12 18  2  0  0  0  0
 13 36  1  0  0  0  0
 13 37  1  0  0  0  0
 13 38  1  0  0  0  0
 14 39  1  0  0  0  0
 14 40  1  0  0  0  0
 14 41  1  0  0  0  0
 15 16  1  0  0  0  0
 15 19  2  0  0  0  0
 16 20  2  0  0  0  0
 17 21  1  0  0  0  0
 17 42  1  0  0  0  0
 18 24  1  0  0  0  0
 18 43  1  0  0  0  0
 19 22  1  0  0  0  0
 20 23  1  0  0  0  0
 21 22  2  0  0  0  0
 23 24  2  0  0  0  0
 25 45  1  0  0  0  0
 25 46  1  0  0  0  0
 25 47  1  0  0  0  0
 26 48  1  0  0  0  0
 26 49  1  0  0  0  0
 26 50  1  0  0  0  0
 27 51  1  0  0  0  0
 27 52  1  0  0  0  0
 27 53  1  0  0  0  0
 28 54  1  0  0  0  0
 28 55  1  0  0  0  0
 28 56  1  0  0  0  0
 29 57  1  0  0  0  0
 29 58  1  0  0  0  0
 29 59  1  0  0  0  0
M  END
> <PUBCHEM_COMPOUND_CID>
78385003

> <PUBCHEM_CONFORMER_RMSD>
0.8

> <PUBCHEM_CONFORMER_DIVERSEORDER>
1
5
9
2
6
7
4
8
3

> <PUBCHEM_MMFF94_PARTIAL_CHARGES>
26
1 -0.36
10 0.14
11 -0.14
12 -0.14
17 -0.15
18 -0.15
19 0.08
2 -0.36
20 0.08
21 0.08
22 0.08
23 0.08
24 0.08
25 0.28
26 0.28
27 0.28
28 0.28
29 0.28
3 -0.36
4 -0.36
42 0.15
43 0.15
44 0.45
5 -0.36
6 -0.53
9 0.14

> <PUBCHEM_EFFECTIVE_ROTOR_COUNT>
5.8

> <PUBCHEM_PHARMACOPHORE_FEATURES>
8
1 1 acceptor
1 2 acceptor
1 3 acceptor
1 4 acceptor
1 5 acceptor
1 6 donor
6 11 15 17 19 21 22 rings
6 12 16 18 20 23 24 rings

> <PUBCHEM_HEAVY_ATOM_COUNT>
29

> <PUBCHEM_ATOM_DEF_STEREO_COUNT>
0

> <PUBCHEM_ATOM_UDEF_STEREO_COUNT>
2

> <PUBCHEM_BOND_DEF_STEREO_COUNT>
0

> <PUBCHEM_BOND_UDEF_STEREO_COUNT>
0

> <PUBCHEM_ISOTOPIC_ATOM_COUNT>
0

> <PUBCHEM_COMPONENT_COUNT>
1

> <PUBCHEM_CACTVS_TAUTO_COUNT>
9

> <PUBCHEM_CONFORMER_ID>
04AC0F6B00000001

> <PUBCHEM_MMFF94_ENERGY>
148.3285

> <PUBCHEM_FEATURE_SELFOVERLAP>
40.616

> <PUBCHEM_SHAPE_FINGERPRINT>
10382601 240 18119535336128127251
1100329 8 18337664334533032162
11115154 58 17334477793836863743
11578080 2 16955068895221284447
12236239 1 18411134740487665801
12422481 6 17828744167625583402
12788726 201 17977942719784451226
13140716 1 18408040697497499504
133893 2 17690594912393787121
14790565 3 18335143068445283348
15420108 30 18126268766938161943
16752209 62 18201427091329991261
16945 1 18197206160316275272
18681886 176 18411693279820898056
20715895 44 17475787655572729049
20739085 24 17967255269278206996
20775438 99 16331837555372400551
21421861 104 17983025449197494531
23366157 5 18119816798710591783
23419403 2 13363787455996807933
23558518 356 18193552492389719474
23559900 14 18129095813845541832
394222 165 18334006173136943603
404807 14 15977825125582171630
474 4 18334294249319924177
484989 97 18048024466470118487
90316 7 16537358784305867251

> <PUBCHEM_SHAPE_MULTIPOLES>
561.59
7.36
5.21
1.66
1.75
5.24
-0.06
-5.68
0.42
-0.29
0.02
-0.15
-0.17
-1.64

> <PUBCHEM_SHAPE_SELFOVERLAP>
1196.588

> <PUBCHEM_SHAPE_VOLUME>
315.8

> <PUBCHEM_COORDINATE_TYPE>
2
5
10

$$$$
