11438980
  -OEChem-08282006403D

 52 54  0     1  0  0  0  0  0999 V2000
    2.8678   -3.5253    0.2159 O   0  0  0  0  0  0  0  0  0  0  0  0
   -5.0563    0.8613   -0.5545 O   0  0  0  0  0  0  0  0  0  0  0  0
   -3.1833    2.2766   -0.3500 O   0  0  0  0  0  0  0  0  0  0  0  0
   -6.5260   -0.3997    0.6883 O   0  0  0  0  0  0  0  0  0  0  0  0
    2.6460    0.0856    0.3318 C   0  0  2  0  0  0  0  0  0  0  0  0
    1.4107    0.2972   -0.6100 C   0  0  2  0  0  0  0  0  0  0  0  0
    3.6123    1.3086    0.5387 C   0  0  0  0  0  0  0  0  0  0  0  0
    0.7056    1.6133   -0.1806 C   0  0  0  0  0  0  0  0  0  0  0  0
    2.7851    2.5767    0.8568 C   0  0  0  0  0  0  0  0  0  0  0  0
    1.6385    2.8190   -0.1131 C   0  0  0  0  0  0  0  0  0  0  0  0
    3.3620   -1.2170   -0.0261 C   0  0  0  0  0  0  0  0  0  0  0  0
    0.4752   -0.9406   -0.4699 C   0  0  0  0  0  0  0  0  0  0  0  0
    1.7519    0.3798   -2.1171 C   0  0  0  0  0  0  0  0  0  0  0  0
    4.5232    1.0510    1.7691 C   0  0  0  0  0  0  0  0  0  0  0  0
    4.5596    1.5818   -0.6458 C   0  0  0  0  0  0  0  0  0  0  0  0
    0.9445   -2.1788   -0.1803 C   0  0  0  0  0  0  0  0  0  0  0  0
    2.4179   -2.3934    0.0293 C   0  0  0  0  0  0  0  0  0  0  0  0
   -1.0000   -0.6813   -0.7085 C   0  0  0  0  0  0  0  0  0  0  0  0
   -1.6987   -0.2840    0.5810 C   0  0  0  0  0  0  0  0  0  0  0  0
    0.1082   -3.4286   -0.0820 C   0  0  0  0  0  0  0  0  0  0  0  0
   -3.1513   -0.0344    0.3476 C   0  0  0  0  0  0  0  0  0  0  0  0
   -3.6304    0.9604   -0.6394 C   0  0  1  0  0  0  0  0  0  0  0  0
   -4.1702   -0.6494    0.9431 C   0  0  0  0  0  0  0  0  0  0  0  0
   -5.3924   -0.0789    0.3756 C   0  0  0  0  0  0  0  0  0  0  0  0
    2.2084   -0.0830    1.3318 H   0  0  0  0  0  0  0  0  0  0  0  0
    0.3289    1.5062    0.8389 H   0  0  0  0  0  0  0  0  0  0  0  0
   -0.1321    1.8695   -0.8372 H   0  0  0  0  0  0  0  0  0  0  0  0
    3.4343    3.4615    0.8734 H   0  0  0  0  0  0  0  0  0  0  0  0
    2.3634    2.4926    1.8680 H   0  0  0  0  0  0  0  0  0  0  0  0
    2.0205    3.0723   -1.1070 H   0  0  0  0  0  0  0  0  0  0  0  0
    1.0676    3.6926    0.2248 H   0  0  0  0  0  0  0  0  0  0  0  0
    4.1555   -1.4238    0.6992 H   0  0  0  0  0  0  0  0  0  0  0  0
    3.8175   -1.1891   -1.0200 H   0  0  0  0  0  0  0  0  0  0  0  0
    2.3512    1.2513   -2.3749 H   0  0  0  0  0  0  0  0  0  0  0  0
    2.2847   -0.5068   -2.4752 H   0  0  0  0  0  0  0  0  0  0  0  0
    0.8401    0.4595   -2.7222 H   0  0  0  0  0  0  0  0  0  0  0  0
    3.9344    0.7762    2.6514 H   0  0  0  0  0  0  0  0  0  0  0  0
    5.2465    0.2507    1.5833 H   0  0  0  0  0  0  0  0  0  0  0  0
    5.0986    1.9484    2.0267 H   0  0  0  0  0  0  0  0  0  0  0  0
    5.2843    2.3639   -0.3867 H   0  0  0  0  0  0  0  0  0  0  0  0
    5.1384    0.6938   -0.9179 H   0  0  0  0  0  0  0  0  0  0  0  0
    4.0430    1.9362   -1.5363 H   0  0  0  0  0  0  0  0  0  0  0  0
   -1.4846   -1.5636   -1.1438 H   0  0  0  0  0  0  0  0  0  0  0  0
   -1.1203    0.0789   -1.4876 H   0  0  0  0  0  0  0  0  0  0  0  0
   -1.5821   -1.0878    1.3202 H   0  0  0  0  0  0  0  0  0  0  0  0
   -1.3046    0.6078    1.0588 H   0  0  0  0  0  0  0  0  0  0  0  0
   -0.9628   -3.2360    0.0096 H   0  0  0  0  0  0  0  0  0  0  0  0
    0.3857   -4.0032    0.8089 H   0  0  0  0  0  0  0  0  0  0  0  0
    0.2690   -4.0591   -0.9624 H   0  0  0  0  0  0  0  0  0  0  0  0
   -3.3400    0.7084   -1.6635 H   0  0  0  0  0  0  0  0  0  0  0  0
   -4.1378   -1.4195    1.6942 H   0  0  0  0  0  0  0  0  0  0  0  0
   -3.0096    2.3465    0.6038 H   0  0  0  0  0  0  0  0  0  0  0  0
  1 17  2  0  0  0  0
  2 22  1  0  0  0  0
  2 24  1  0  0  0  0
  3 22  1  0  0  0  0
  3 52  1  0  0  0  0
  4 24  2  0  0  0  0
  5  6  1  0  0  0  0
  5  7  1  0  0  0  0
  5 11  1  0  0  0  0
  5 25  1  0  0  0  0
  6  8  1  0  0  0  0
  6 12  1  0  0  0  0
  6 13  1  0  0  0  0
  7  9  1  0  0  0  0
  7 14  1  0  0  0  0
  7 15  1  0  0  0  0
  8 10  1  0  0  0  0
  8 26  1  0  0  0  0
  8 27  1  0  0  0  0
  9 10  1  0  0  0  0
  9 28  1  0  0  0  0
  9 29  1  0  0  0  0
 10 30  1  0  0  0  0
 10 31  1  0  0  0  0
 11 17  1  0  0  0  0
 11 32  1  0  0  0  0
 11 33  1  0  0  0  0
 12 16  2  0  0  0  0
 12 18  1  0  0  0  0
 13 34  1  0  0  0  0
 13 35  1  0  0  0  0
 13 36  1  0  0  0  0
 14 37  1  0  0  0  0
 14 38  1  0  0  0  0
 14 39  1  0  0  0  0
 15 40  1  0  0  0  0
 15 41  1  0  0  0  0
 15 42  1  0  0  0  0
 16 17  1  0  0  0  0
 16 20  1  0  0  0  0
 18 19  1  0  0  0  0
 18 43  1  0  0  0  0
 18 44  1  0  0  0  0
 19 21  1  0  0  0  0
 19 45  1  0  0  0  0
 19 46  1  0  0  0  0
 20 47  1  0  0  0  0
 20 48  1  0  0  0  0
 20 49  1  0  0  0  0
 21 22  1  0  0  0  0
 21 23  2  0  0  0  0
 22 50  1  0  0  0  0
 23 24  1  0  0  0  0
 23 51  1  0  0  0  0
M  END
> <PUBCHEM_COMPOUND_CID>
11438980

> <PUBCHEM_CONFORMER_RMSD>
0.8

> <PUBCHEM_CONFORMER_DIVERSEORDER>
3
14
7
9
2
12
10
1
11
5
8
4
13
6

> <PUBCHEM_MMFF94_PARTIAL_CHARGES>
18
1 -0.57
11 0.06
12 -0.28
16 -0.12
17 0.49
18 0.14
19 0.14
2 -0.43
20 0.14
21 -0.28
22 0.7
23 -0.14
24 0.71
3 -0.68
4 -0.57
51 0.15
52 0.4
6 0.14

> <PUBCHEM_EFFECTIVE_ROTOR_COUNT>
4.4

> <PUBCHEM_PHARMACOPHORE_FEATURES>
8
1 1 acceptor
1 3 acceptor
1 3 donor
1 4 acceptor
3 7 14 15 hydrophobe
5 2 21 22 23 24 rings
6 5 6 11 12 16 17 rings
6 5 6 7 8 9 10 rings

> <PUBCHEM_HEAVY_ATOM_COUNT>
24

> <PUBCHEM_ATOM_DEF_STEREO_COUNT>
2

> <PUBCHEM_ATOM_UDEF_STEREO_COUNT>
1

> <PUBCHEM_BOND_DEF_STEREO_COUNT>
0

> <PUBCHEM_BOND_UDEF_STEREO_COUNT>
0

> <PUBCHEM_ISOTOPIC_ATOM_COUNT>
0

> <PUBCHEM_COMPONENT_COUNT>
1

> <PUBCHEM_CACTVS_TAUTO_COUNT>
5

> <PUBCHEM_CONFORMER_ID>
00AE8B8400000003

> <PUBCHEM_MMFF94_ENERGY>
60.1991

> <PUBCHEM_FEATURE_SELFOVERLAP>
40.612

> <PUBCHEM_SHAPE_FINGERPRINT>
10165383 225 18335990865140793260
10366900 7 18261127278589127361
10411042 1 17979356357163222054
10493431 412 18267578186418854120
11370993 70 18409726292052088915
11961588 58 12606823926390373752
12011746 2 18412553119668210292
12236239 1 17418095425494771965
12403259 226 18262798441716148173
12403259 327 16805600425357966992
12403259 415 18187929439601313949
12592029 89 18411701014708669528
12633257 1 18266445676441467304
12730499 353 18410302436218909579
12788726 201 16916516861304110529
13134695 92 18266734684373960606
13140716 1 18124024895955702600
13533116 47 18410577254275983635
13583140 156 18411141380929053139
14178342 30 18123172765980920034
14790565 3 18336834203523957092
14863182 85 18335430057969773270
15420108 30 18128233740852858810
1601671 61 18334577975424370628
16945 1 18265882731104513380
1813 80 17628647349486090398
20157964 124 18411976958532231295
20739085 24 18260263049754970564
21033648 29 18341319067807448993
21065201 7 16950849103154512403
21197605 99 18194407921026830507
21452121 103 18339633460889586338
21524375 3 18057888137151084756
21792934 111 18261116232777650937
21859007 373 17314493852600741837
22149856 69 18263950820956409339
23419403 2 17827055347956905454
23557571 272 17675920989566617717
23558518 356 17687458379614005330
23559900 14 17968667021181626159
2838139 119 15410321291340363496
335352 9 18412266168845282046
33824 294 18410855456060112890
3421961 26 18338233739632804450
350125 39 17977389661335384742
4340502 62 18271248321730324211
465052 167 17676765444271247024
474 4 18342739666820764809
5104073 3 18337115554051163321
58807428 26 18267570468362526066
5895379 119 16484739644991816097
59755656 215 18408890645834532943
633830 44 18057881544914674180
6443956 14 18121502349645588790
7364860 26 18411419470938784607
7808743 9 18048600618883644252
8272917 22 18413110558598179646
9709674 26 18261117361747336155
9777508 108 18122344841735287018
9999458 23 18339082691769495036

> <PUBCHEM_SHAPE_MULTIPOLES>
470.43
10.69
3.33
1.17
15.89
2.05
-0.15
-3.61
2.76
-3.14
0.12
-0.7
-0.29
0.7

> <PUBCHEM_SHAPE_SELFOVERLAP>
992.296

> <PUBCHEM_SHAPE_VOLUME>
263.4

> <PUBCHEM_COORDINATE_TYPE>
2
5
10

$$$$
