10854201
  -OEChem-08282006363D

 54 56  0     1  0  0  0  0  0999 V2000
    0.7573   -0.9883    2.0189 O   0  0  0  0  0  0  0  0  0  0  0  0
    2.3104   -3.4886   -0.2433 O   0  0  0  0  0  0  0  0  0  0  0  0
   -5.1605    1.5886   -0.0831 O   0  0  0  0  0  0  0  0  0  0  0  0
   -6.6901   -0.1307   -0.0804 O   0  0  0  0  0  0  0  0  0  0  0  0
    1.1491    0.4895    0.0927 C   0  0  1  0  0  0  0  0  0  0  0  0
    2.6467   -0.0125    0.0091 C   0  0  2  0  0  0  0  0  0  0  0  0
    0.2653   -0.7034    0.6964 C   0  0  1  0  0  0  0  0  0  0  0  0
    3.7577    1.0713   -0.2509 C   0  0  0  0  0  0  0  0  0  0  0  0
    1.1022    1.7318    1.0303 C   0  0  0  0  0  0  0  0  0  0  0  0
    0.3943   -2.0024   -0.1609 C   0  0  1  0  0  0  0  0  0  0  0  0
    2.7571   -1.2429   -0.9023 C   0  0  0  0  0  0  0  0  0  0  0  0
    3.5346    2.2829    0.6849 C   0  0  0  0  0  0  0  0  0  0  0  0
    2.1113    2.8189    0.6704 C   0  0  0  0  0  0  0  0  0  0  0  0
    0.5674    0.9081   -1.2828 C   0  0  0  0  0  0  0  0  0  0  0  0
   -1.2204   -0.3203    0.8641 C   0  0  0  0  0  0  0  0  0  0  0  0
    1.8654   -2.3494   -0.3885 C   0  0  0  0  0  0  0  0  0  0  0  0
    3.8631    1.5444   -1.7137 C   0  0  0  0  0  0  0  0  0  0  0  0
    5.1499    0.4849    0.1109 C   0  0  0  0  0  0  0  0  0  0  0  0
   -0.3347   -3.2231    0.4176 C   0  0  0  0  0  0  0  0  0  0  0  0
   -1.8760   -0.1123   -0.4909 C   0  0  0  0  0  0  0  0  0  0  0  0
   -3.3121    0.2625   -0.3404 C   0  0  0  0  0  0  0  0  0  0  0  0
   -3.7359    1.6703   -0.1985 C   0  0  0  0  0  0  0  0  0  0  0  0
   -4.3574   -0.5597   -0.3123 C   0  0  0  0  0  0  0  0  0  0  0  0
   -5.5445    0.2805   -0.1475 C   0  0  0  0  0  0  0  0  0  0  0  0
    2.8867   -0.3720    1.0208 H   0  0  0  0  0  0  0  0  0  0  0  0
    1.2955    1.4260    2.0662 H   0  0  0  0  0  0  0  0  0  0  0  0
    0.1029    2.1826    1.0289 H   0  0  0  0  0  0  0  0  0  0  0  0
    0.0079   -1.8620   -1.1743 H   0  0  0  0  0  0  0  0  0  0  0  0
    3.7790   -1.6325   -0.9225 H   0  0  0  0  0  0  0  0  0  0  0  0
    2.4648   -1.0267   -1.9343 H   0  0  0  0  0  0  0  0  0  0  0  0
    4.2258    3.0950    0.4252 H   0  0  0  0  0  0  0  0  0  0  0  0
    3.7781    1.9959    1.7172 H   0  0  0  0  0  0  0  0  0  0  0  0
    1.8725    3.2503   -0.3073 H   0  0  0  0  0  0  0  0  0  0  0  0
    2.0292    3.6371    1.3959 H   0  0  0  0  0  0  0  0  0  0  0  0
   -0.0911    1.7803   -1.2195 H   0  0  0  0  0  0  0  0  0  0  0  0
    1.3630    1.2824   -1.9241 H   0  0  0  0  0  0  0  0  0  0  0  0
    0.1700    0.0927   -1.8887 H   0  0  0  0  0  0  0  0  0  0  0  0
   -1.3185    0.5754    1.4888 H   0  0  0  0  0  0  0  0  0  0  0  0
   -1.7491   -1.0935    1.4365 H   0  0  0  0  0  0  0  0  0  0  0  0
    3.0803    2.2515   -1.9930 H   0  0  0  0  0  0  0  0  0  0  0  0
    4.8048    2.0851   -1.8743 H   0  0  0  0  0  0  0  0  0  0  0  0
    3.8568    0.7118   -2.4225 H   0  0  0  0  0  0  0  0  0  0  0  0
    5.1519    0.0496    1.1165 H   0  0  0  0  0  0  0  0  0  0  0  0
    5.4627   -0.2920   -0.5937 H   0  0  0  0  0  0  0  0  0  0  0  0
    5.9222    1.2633    0.0919 H   0  0  0  0  0  0  0  0  0  0  0  0
    0.0202   -3.4655    1.4248 H   0  0  0  0  0  0  0  0  0  0  0  0
   -1.4159   -3.0650    0.4611 H   0  0  0  0  0  0  0  0  0  0  0  0
   -0.1711   -4.1087   -0.2073 H   0  0  0  0  0  0  0  0  0  0  0  0
    1.5164   -1.5903    1.9611 H   0  0  0  0  0  0  0  0  0  0  0  0
   -1.8448   -1.0170   -1.1045 H   0  0  0  0  0  0  0  0  0  0  0  0
   -1.5479    0.7097   -1.0958 H   0  0  0  0  0  0  0  0  0  0  0  0
   -3.3322    2.1393    0.7034 H   0  0  0  0  0  0  0  0  0  0  0  0
   -3.4858    2.2728   -1.0766 H   0  0  0  0  0  0  0  0  0  0  0  0
   -4.3635   -1.6331   -0.3911 H   0  0  0  0  0  0  0  0  0  0  0  0
  1  7  1  0  0  0  0
  1 49  1  0  0  0  0
  2 16  2  0  0  0  0
  3 22  1  0  0  0  0
  3 24  1  0  0  0  0
  4 24  2  0  0  0  0
  5  6  1  0  0  0  0
  5  7  1  0  0  0  0
  5  9  1  0  0  0  0
  5 14  1  0  0  0  0
  6  8  1  0  0  0  0
  6 11  1  0  0  0  0
  6 25  1  0  0  0  0
  7 10  1  0  0  0  0
  7 15  1  0  0  0  0
  8 12  1  0  0  0  0
  8 17  1  0  0  0  0
  8 18  1  0  0  0  0
  9 13  1  0  0  0  0
  9 26  1  0  0  0  0
  9 27  1  0  0  0  0
 10 16  1  0  0  0  0
 10 19  1  0  0  0  0
 10 28  1  0  0  0  0
 11 16  1  0  0  0  0
 11 29  1  0  0  0  0
 11 30  1  0  0  0  0
 12 13  1  0  0  0  0
 12 31  1  0  0  0  0
 12 32  1  0  0  0  0
 13 33  1  0  0  0  0
 13 34  1  0  0  0  0
 14 35  1  0  0  0  0
 14 36  1  0  0  0  0
 14 37  1  0  0  0  0
 15 20  1  0  0  0  0
 15 38  1  0  0  0  0
 15 39  1  0  0  0  0
 17 40  1  0  0  0  0
 17 41  1  0  0  0  0
 17 42  1  0  0  0  0
 18 43  1  0  0  0  0
 18 44  1  0  0  0  0
 18 45  1  0  0  0  0
 19 46  1  0  0  0  0
 19 47  1  0  0  0  0
 19 48  1  0  0  0  0
 20 21  1  0  0  0  0
 20 50  1  0  0  0  0
 20 51  1  0  0  0  0
 21 22  1  0  0  0  0
 21 23  2  0  0  0  0
 22 52  1  0  0  0  0
 22 53  1  0  0  0  0
 23 24  1  0  0  0  0
 23 54  1  0  0  0  0
M  END
> <PUBCHEM_COMPOUND_CID>
10854201

> <PUBCHEM_CONFORMER_RMSD>
0.8

> <PUBCHEM_CONFORMER_DIVERSEORDER>
2
3
1

> <PUBCHEM_MMFF94_PARTIAL_CHARGES>
15
1 -0.68
10 0.06
11 0.06
16 0.45
2 -0.57
20 0.14
21 -0.28
22 0.42
23 -0.14
24 0.71
3 -0.43
4 -0.57
49 0.4
54 0.15
7 0.28

> <PUBCHEM_EFFECTIVE_ROTOR_COUNT>
4.8

> <PUBCHEM_PHARMACOPHORE_FEATURES>
8
1 1 acceptor
1 1 donor
1 2 acceptor
1 4 acceptor
3 8 17 18 hydrophobe
5 3 21 22 23 24 rings
6 5 6 7 10 11 16 rings
6 5 6 8 9 12 13 rings

> <PUBCHEM_HEAVY_ATOM_COUNT>
24

> <PUBCHEM_ATOM_DEF_STEREO_COUNT>
4

> <PUBCHEM_ATOM_UDEF_STEREO_COUNT>
0

> <PUBCHEM_BOND_DEF_STEREO_COUNT>
0

> <PUBCHEM_BOND_UDEF_STEREO_COUNT>
0

> <PUBCHEM_ISOTOPIC_ATOM_COUNT>
0

> <PUBCHEM_COMPONENT_COUNT>
1

> <PUBCHEM_CACTVS_TAUTO_COUNT>
3

> <PUBCHEM_CONFORMER_ID>
00A59F3900000002

> <PUBCHEM_MMFF94_ENERGY>
93.6353

> <PUBCHEM_FEATURE_SELFOVERLAP>
40.61

> <PUBCHEM_SHAPE_FINGERPRINT>
10165383 225 18334581269453173516
10411042 1 17907861695782808310
10693767 8 17917436363501963966
10948715 1 18339640156812126862
11370993 70 18340484577093824610
11796584 16 14189579641288536621
12011746 2 18341341045940488316
12107183 9 17623297070254821529
12236239 1 17418377973933770833
12592029 89 18413388747914450434
12730499 353 18410863187217627619
12769317 202 18340475703797184909
12788726 201 16988288565165490041
12895836 83 17899151669926347476
13009979 54 17344071758184208675
13140716 1 18267576000327862960
13464514 151 18412829087958510928
13533116 47 18412543177124686807
13692114 37 18198045075163004543
13955234 65 18412542081154120379
1601671 61 18410571777733738628
16728300 4 17462816828674111402
16945 1 18271262607054970064
17980427 26 17914871318701107860
20600515 1 16817670567612607458
20645477 70 18130229259371367007
20691752 17 16589158108456091333
21033648 29 18196931299763898096
21452121 103 18335696096702036010
21524375 3 18259981604215030106
221357 26 18272088288579686101
22182313 1 18191894355187078763
22289505 5 18340482257964849069
22393880 68 18202284748722150735
23419403 2 17537204347400303866
23557571 272 17750248057277154579
23558518 356 17684926195323127562
23559900 14 18196644100112408171
25 1 18411415128963932870
2748010 2 17840036470245007624
3060560 45 18272369797836390468
335352 9 18411982477660171878
350125 39 18050015685562630994
3545911 37 18409167727729690621
38695281 34 18202562890831035695
4072396 5 18340758287587160098
42630746 31 18412261718325798382
427121 178 17675922101319244395
4340502 62 18413388756420001966
474 4 18412262878109483985
484989 97 18338251465036817818
495365 180 18201713011714255488
5104073 3 18262805056419400217
5281201 14 18339361851695250205
5312625 73 18412263961068619627
54040823 5 18131352977255383926
543358 83 18270686346512692625
5895379 119 17200803185577450273
59755656 215 18410013234464015253
6138700 20 18340488872910479102
633830 44 18129935805614985629
6442390 28 18336262448427915255
6443956 14 18123753054189606246
70251023 43 17843140103618013550
7364860 26 18340764849753966483
8272917 22 18343303639034411879
84936 182 18342457015081206336
9999458 23 18342173405679985356

> <PUBCHEM_SHAPE_MULTIPOLES>
470.43
10.6
3.11
1.15
16.06
1.97
0.04
-5.05
-1.77
-2.31
0.3
-0.79
-0.17
0.37

> <PUBCHEM_SHAPE_SELFOVERLAP>
988.782

> <PUBCHEM_SHAPE_VOLUME>
264.5

> <PUBCHEM_COORDINATE_TYPE>
2
5
10

$$$$
