92966417
  -OEChem-08282006523D

 59 61  0     1  0  0  0  0  0999 V2000
    0.2091   -0.7063    1.7549 O   0  0  0  0  0  0  0  0  0  0  0  0
    0.0708    2.0194   -0.7180 O   0  0  0  0  0  0  0  0  0  0  0  0
   -1.8311    2.4449    1.8329 O   0  0  0  0  0  0  0  0  0  0  0  0
   -0.6994    4.0290    0.1217 O   0  0  0  0  0  0  0  0  0  0  0  0
    6.0350   -1.4850   -0.1173 O   0  0  0  0  0  0  0  0  0  0  0  0
   -0.9764   -1.0234   -0.3526 C   0  0  1  0  0  0  0  0  0  0  0  0
   -2.3676   -0.6704    0.2958 C   0  0  2  0  0  0  0  0  0  0  0  0
    0.1690   -0.1920    0.4037 C   0  0  1  0  0  0  0  0  0  0  0  0
   -3.5948   -1.5228   -0.2137 C   0  0  0  0  0  0  0  0  0  0  0  0
   -0.7051   -2.5650   -0.1759 C   0  0  0  0  0  0  0  0  0  0  0  0
   -0.1070    1.3461    0.5237 C   0  0  2  0  0  0  0  0  0  0  0  0
   -2.6431    0.8403    0.2751 C   0  0  0  0  0  0  0  0  0  0  0  0
   -3.1609   -2.9491   -0.6337 C   0  0  0  0  0  0  0  0  0  0  0  0
   -1.9347   -3.4211    0.1259 C   0  0  0  0  0  0  0  0  0  0  0  0
   -0.9744   -0.7441   -1.8785 C   0  0  0  0  0  0  0  0  0  0  0  0
    1.5640   -0.4530   -0.2111 C   0  0  0  0  0  0  0  0  0  0  0  0
   -1.5466    1.6039    0.9785 C   0  0  0  0  0  0  0  0  0  0  0  0
   -4.6119   -1.6558    0.9514 C   0  0  0  0  0  0  0  0  0  0  0  0
   -4.3605   -0.8813   -1.3906 C   0  0  0  0  0  0  0  0  0  0  0  0
    0.8504    2.0591    1.4977 C   0  0  0  0  0  0  0  0  0  0  0  0
    2.6444   -0.3424    0.8526 C   0  0  0  0  0  0  0  0  0  0  0  0
    4.0074   -0.5911    0.2589 C   0  0  0  0  0  0  0  0  0  0  0  0
   -0.5106    3.2472   -0.8004 C   0  0  0  0  0  0  0  0  0  0  0  0
    4.6157    0.1163   -0.8054 C   0  0  0  0  0  0  0  0  0  0  0  0
    4.9107   -1.5547    0.6428 C   0  0  0  0  0  0  0  0  0  0  0  0
   -0.8999    3.5168   -2.2223 C   0  0  0  0  0  0  0  0  0  0  0  0
    5.8474   -0.4656   -0.9961 C   0  0  0  0  0  0  0  0  0  0  0  0
   -2.2654   -0.9340    1.3588 H   0  0  0  0  0  0  0  0  0  0  0  0
    0.0219   -2.7642    0.6196 H   0  0  0  0  0  0  0  0  0  0  0  0
   -0.2312   -2.9585   -1.0856 H   0  0  0  0  0  0  0  0  0  0  0  0
   -3.5802    1.0624    0.7975 H   0  0  0  0  0  0  0  0  0  0  0  0
   -2.7379    1.2358   -0.7397 H   0  0  0  0  0  0  0  0  0  0  0  0
   -2.9466   -2.9928   -1.7081 H   0  0  0  0  0  0  0  0  0  0  0  0
   -3.9806   -3.6614   -0.4747 H   0  0  0  0  0  0  0  0  0  0  0  0
   -1.7172   -4.4644   -0.1317 H   0  0  0  0  0  0  0  0  0  0  0  0
   -2.1356   -3.4081    1.2040 H   0  0  0  0  0  0  0  0  0  0  0  0
   -1.2595    0.2840   -2.1111 H   0  0  0  0  0  0  0  0  0  0  0  0
   -1.6494   -1.4036   -2.4270 H   0  0  0  0  0  0  0  0  0  0  0  0
    0.0168   -0.9061   -2.3146 H   0  0  0  0  0  0  0  0  0  0  0  0
    1.6221   -1.4679   -0.6225 H   0  0  0  0  0  0  0  0  0  0  0  0
    1.7535    0.2170   -1.0573 H   0  0  0  0  0  0  0  0  0  0  0  0
   -4.9739   -0.6782    1.2861 H   0  0  0  0  0  0  0  0  0  0  0  0
   -4.8424    0.0582   -1.0991 H   0  0  0  0  0  0  0  0  0  0  0  0
   -5.1559   -1.5477   -1.7457 H   0  0  0  0  0  0  0  0  0  0  0  0
   -4.1673   -2.1603    1.8163 H   0  0  0  0  0  0  0  0  0  0  0  0
   -5.4888   -2.2393    0.6472 H   0  0  0  0  0  0  0  0  0  0  0  0
   -3.7121   -0.6697   -2.2437 H   0  0  0  0  0  0  0  0  0  0  0  0
    1.7907    2.3344    1.0081 H   0  0  0  0  0  0  0  0  0  0  0  0
    1.0427    1.4784    2.4050 H   0  0  0  0  0  0  0  0  0  0  0  0
    0.4645    3.0133    1.8726 H   0  0  0  0  0  0  0  0  0  0  0  0
   -0.5315   -0.3370    2.2621 H   0  0  0  0  0  0  0  0  0  0  0  0
    2.4943   -1.0937    1.6382 H   0  0  0  0  0  0  0  0  0  0  0  0
    2.7228    0.6184    1.3479 H   0  0  0  0  0  0  0  0  0  0  0  0
    4.2128    0.9483   -1.3652 H   0  0  0  0  0  0  0  0  0  0  0  0
    4.9066   -2.3274    1.3981 H   0  0  0  0  0  0  0  0  0  0  0  0
   -1.6776    2.8160   -2.5346 H   0  0  0  0  0  0  0  0  0  0  0  0
   -0.0235    3.4333   -2.8702 H   0  0  0  0  0  0  0  0  0  0  0  0
   -1.2919    4.5347   -2.3031 H   0  0  0  0  0  0  0  0  0  0  0  0
    6.6641   -0.2804   -1.6784 H   0  0  0  0  0  0  0  0  0  0  0  0
  1  8  1  0  0  0  0
  1 51  1  0  0  0  0
  2 11  1  0  0  0  0
  2 23  1  0  0  0  0
  3 17  2  0  0  0  0
  4 23  2  0  0  0  0
  5 25  1  0  0  0  0
  5 27  1  0  0  0  0
  6  7  1  0  0  0  0
  6  8  1  0  0  0  0
  6 10  1  0  0  0  0
  6 15  1  0  0  0  0
  7  9  1  0  0  0  0
  7 12  1  0  0  0  0
  7 28  1  0  0  0  0
  8 11  1  0  0  0  0
  8 16  1  0  0  0  0
  9 13  1  0  0  0  0
  9 18  1  0  0  0  0
  9 19  1  0  0  0  0
 10 14  1  0  0  0  0
 10 29  1  0  0  0  0
 10 30  1  0  0  0  0
 11 17  1  0  0  0  0
 11 20  1  0  0  0  0
 12 17  1  0  0  0  0
 12 31  1  0  0  0  0
 12 32  1  0  0  0  0
 13 14  1  0  0  0  0
 13 33  1  0  0  0  0
 13 34  1  0  0  0  0
 14 35  1  0  0  0  0
 14 36  1  0  0  0  0
 15 37  1  0  0  0  0
 15 38  1  0  0  0  0
 15 39  1  0  0  0  0
 16 21  1  0  0  0  0
 16 40  1  0  0  0  0
 16 41  1  0  0  0  0
 18 42  1  0  0  0  0
 18 45  1  0  0  0  0
 18 46  1  0  0  0  0
 19 43  1  0  0  0  0
 19 44  1  0  0  0  0
 19 47  1  0  0  0  0
 20 48  1  0  0  0  0
 20 49  1  0  0  0  0
 20 50  1  0  0  0  0
 21 22  1  0  0  0  0
 21 52  1  0  0  0  0
 21 53  1  0  0  0  0
 22 24  1  0  0  0  0
 22 25  2  0  0  0  0
 23 26  1  0  0  0  0
 24 27  2  0  0  0  0
 24 54  1  0  0  0  0
 25 55  1  0  0  0  0
 26 56  1  0  0  0  0
 26 57  1  0  0  0  0
 26 58  1  0  0  0  0
 27 59  1  0  0  0  0
M  END
> <PUBCHEM_COMPOUND_CID>
92966417

> <PUBCHEM_CONFORMER_RMSD>
0.8

> <PUBCHEM_CONFORMER_DIVERSEORDER>
1
13
17
16
15
6
12
10
7
14
18
9
5
4
8
11
2
3

> <PUBCHEM_MMFF94_PARTIAL_CHARGES>
20
1 -0.68
11 0.34
12 0.06
17 0.45
2 -0.43
21 0.18
22 -0.18
23 0.66
24 -0.15
25 -0.01
26 0.06
27 -0.01
3 -0.57
4 -0.57
5 -0.28
51 0.4
54 0.15
55 0.15
59 0.15
8 0.28

> <PUBCHEM_EFFECTIVE_ROTOR_COUNT>
6.4

> <PUBCHEM_PHARMACOPHORE_FEATURES>
9
1 1 acceptor
1 1 donor
1 3 acceptor
1 4 acceptor
1 5 acceptor
3 9 18 19 hydrophobe
5 5 22 24 25 27 rings
6 6 7 8 11 12 17 rings
6 6 7 9 10 13 14 rings

> <PUBCHEM_HEAVY_ATOM_COUNT>
27

> <PUBCHEM_ATOM_DEF_STEREO_COUNT>
4

> <PUBCHEM_ATOM_UDEF_STEREO_COUNT>
0

> <PUBCHEM_BOND_DEF_STEREO_COUNT>
0

> <PUBCHEM_BOND_UDEF_STEREO_COUNT>
0

> <PUBCHEM_ISOTOPIC_ATOM_COUNT>
0

> <PUBCHEM_COMPONENT_COUNT>
1

> <PUBCHEM_CACTVS_TAUTO_COUNT>
4

> <PUBCHEM_CONFORMER_ID>
058A8E1100000001

> <PUBCHEM_MMFF94_ENERGY>
108.9744

> <PUBCHEM_FEATURE_SELFOVERLAP>
45.699

> <PUBCHEM_SHAPE_FINGERPRINT>
10670039 82 18338249172183516006
10764073 3 14833073107795018248
10871710 139 18114469959315974340
1100329 8 18341899606110389609
11045515 52 18187363272200624684
11578080 2 17824799325942779852
11582403 64 16014084815051551317
12011746 2 18341040874723543095
12403814 3 18190471471514002408
12422481 6 17916329185030042011
12553582 1 18338225054929487154
12714826 92 18131627864337798986
12788726 201 18261384512691733850
13004483 165 18410569621876414378
13009979 54 17915754269651337571
13134695 92 17844239860079660161
13140716 1 18127416872205869539
14068700 675 18059565923929968013
14251751 93 18119528739617081360
14347332 77 18337107853101655838
14508225 48 18412254064762746236
14790565 3 18053388690958485225
14910302 57 18129113221279219942
14955137 171 18263938789972472819
15042514 8 18411426076603747818
15230672 131 17690011038141448174
16752209 62 18265032666518474354
16945 1 18131637785532820243
17357779 13 18200857548433069797
17492 54 17825645791451947269
17492 89 17695058190990444071
1813 80 18189885590513552656
19958102 18 18267867177715362566
20600515 1 18200046143074476215
20775438 99 16832298939051767439
21029758 27 18335987548982733867
21285901 2 18272935985858089070
22182313 1 18194091192425440257
22907989 373 18263912251100350084
22950370 63 18338239370282259786
23175994 123 18335980973562065415
23402539 116 18343018887061276119
23419403 2 17844500353772319569
23557571 272 17988656159870293262
23559900 14 18271236252887865058
23566358 27 17684659014362023051
255183 451 17981328107749958967
3027735 51 18200028435109424814
3178227 256 18264224637774744603
335352 9 18342175592451315607
4058900 60 17406562407007453249
4280585 95 18337377353366095346
4409770 3 18191011327348742765
484989 97 18265324179678099591
497634 4 18201450160058631220
59755656 520 17628087689535094240
7237137 82 18411140217124797956

> <PUBCHEM_SHAPE_MULTIPOLES>
526.3
9.21
4.15
1.55
13.97
3.26
-0.23
-7.98
-1.36
-2.77
-0.72
-0.45
0.92
-0.25

> <PUBCHEM_SHAPE_SELFOVERLAP>
1113.48

> <PUBCHEM_SHAPE_VOLUME>
291.2

> <PUBCHEM_COORDINATE_TYPE>
2
5
10

$$$$
