10969647
  -OEChem-08282009493D

 56 58  0     1  0  0  0  0  0999 V2000
    5.1793   -0.5179    0.1110 O   0  0  0  0  0  0  0  0  0  0  0  0
    4.0521   -0.9267   -1.9111 O   0  0  0  0  0  0  0  0  0  0  0  0
    6.2869    1.2512    1.0832 O   0  0  0  0  0  0  0  0  0  0  0  0
    1.0033   -0.4198    0.1498 C   0  0  1  0  0  0  0  0  0  0  0  0
    1.7849    0.6851   -0.6086 C   0  0  1  0  0  0  0  0  0  0  0  0
   -0.4117   -0.1399   -0.4088 C   0  0  2  0  0  0  0  0  0  0  0  0
    0.9424    1.9356   -0.3839 C   0  0  0  0  0  0  0  0  0  0  0  0
   -0.5067    1.4074   -0.4103 C   0  0  0  0  0  0  0  0  0  0  0  0
    1.6046   -1.7962   -0.2250 C   0  0  0  0  0  0  0  0  0  0  0  0
    3.2253    0.6124   -0.2518 C   0  0  0  0  0  0  0  0  0  0  0  0
    3.9032   -0.6873   -0.5125 C   0  0  2  0  0  0  0  0  0  0  0  0
    3.1184   -1.8640    0.0980 C   0  0  0  0  0  0  0  0  0  0  0  0
   -1.5725   -0.8049    0.3171 C   0  0  2  0  0  0  0  0  0  0  0  0
    1.0366   -0.2543    1.6936 C   0  0  0  0  0  0  0  0  0  0  0  0
    4.0339    1.4829    0.3408 C   0  0  0  0  0  0  0  0  0  0  0  0
   -1.4255   -2.3282    0.2983 C   0  0  0  0  0  0  0  0  0  0  0  0
   -2.8845   -0.4056   -0.3138 C   0  0  0  0  0  0  0  0  0  0  0  0
    5.2967    0.7699    0.5593 C   0  0  0  0  0  0  0  0  0  0  0  0
   -3.8587    0.2469    0.3390 C   0  0  0  0  0  0  0  0  0  0  0  0
   -5.1682    0.6592   -0.2972 C   0  0  1  0  0  0  0  0  0  0  0  0
   -6.3793   -0.0010    0.4217 C   0  0  0  0  0  0  0  0  0  0  0  0
   -5.2419    2.1906   -0.2848 C   0  0  0  0  0  0  0  0  0  0  0  0
   -6.3046   -1.5323    0.3945 C   0  0  0  0  0  0  0  0  0  0  0  0
   -7.7144    0.4370   -0.1984 C   0  0  0  0  0  0  0  0  0  0  0  0
    1.7339    0.4793   -1.6905 H   0  0  0  0  0  0  0  0  0  0  0  0
   -0.4321   -0.4619   -1.4623 H   0  0  0  0  0  0  0  0  0  0  0  0
    1.1095    2.6862   -1.1635 H   0  0  0  0  0  0  0  0  0  0  0  0
    1.1578    2.4096    0.5803 H   0  0  0  0  0  0  0  0  0  0  0  0
   -1.0493    1.7942    0.4599 H   0  0  0  0  0  0  0  0  0  0  0  0
   -1.0294    1.7591   -1.3070 H   0  0  0  0  0  0  0  0  0  0  0  0
    1.4608   -1.9901   -1.2954 H   0  0  0  0  0  0  0  0  0  0  0  0
    1.1349   -2.6207    0.3122 H   0  0  0  0  0  0  0  0  0  0  0  0
    3.2654   -1.8876    1.1851 H   0  0  0  0  0  0  0  0  0  0  0  0
    3.5150   -2.8188   -0.2694 H   0  0  0  0  0  0  0  0  0  0  0  0
   -1.5914   -0.4880    1.3675 H   0  0  0  0  0  0  0  0  0  0  0  0
    0.5710   -1.1086    2.1954 H   0  0  0  0  0  0  0  0  0  0  0  0
    2.0566   -0.1798    2.0827 H   0  0  0  0  0  0  0  0  0  0  0  0
    0.5094    0.6440    2.0303 H   0  0  0  0  0  0  0  0  0  0  0  0
    3.8194    2.4839    0.6710 H   0  0  0  0  0  0  0  0  0  0  0  0
   -1.0895   -2.7028   -0.6743 H   0  0  0  0  0  0  0  0  0  0  0  0
   -2.3875   -2.8115    0.5114 H   0  0  0  0  0  0  0  0  0  0  0  0
   -0.7500   -2.6756    1.0830 H   0  0  0  0  0  0  0  0  0  0  0  0
   -3.0292   -0.6682   -1.3595 H   0  0  0  0  0  0  0  0  0  0  0  0
    4.2169   -1.8743   -2.0475 H   0  0  0  0  0  0  0  0  0  0  0  0
   -3.7160    0.5104    1.3846 H   0  0  0  0  0  0  0  0  0  0  0  0
   -5.1758    0.3389   -1.3482 H   0  0  0  0  0  0  0  0  0  0  0  0
   -6.3839    0.3125    1.4745 H   0  0  0  0  0  0  0  0  0  0  0  0
   -6.0747    2.5535   -0.8950 H   0  0  0  0  0  0  0  0  0  0  0  0
   -4.3285    2.6329   -0.6999 H   0  0  0  0  0  0  0  0  0  0  0  0
   -5.3698    2.5773    0.7325 H   0  0  0  0  0  0  0  0  0  0  0  0
   -7.1857   -1.9737    0.8730 H   0  0  0  0  0  0  0  0  0  0  0  0
   -6.2557   -1.9073   -0.6334 H   0  0  0  0  0  0  0  0  0  0  0  0
   -5.4277   -1.9023    0.9349 H   0  0  0  0  0  0  0  0  0  0  0  0
   -7.7389    0.2295   -1.2735 H   0  0  0  0  0  0  0  0  0  0  0  0
   -8.5523   -0.0935    0.2671 H   0  0  0  0  0  0  0  0  0  0  0  0
   -7.8935    1.5058   -0.0488 H   0  0  0  0  0  0  0  0  0  0  0  0
  1 11  1  0  0  0  0
  1 18  1  0  0  0  0
  2 11  1  0  0  0  0
  2 44  1  0  0  0  0
  3 18  2  0  0  0  0
  4  5  1  0  0  0  0
  4  6  1  0  0  0  0
  4  9  1  0  0  0  0
  4 14  1  0  0  0  0
  5  7  1  0  0  0  0
  5 10  1  0  0  0  0
  5 25  1  0  0  0  0
  6  8  1  0  0  0  0
  6 13  1  0  0  0  0
  6 26  1  0  0  0  0
  7  8  1  0  0  0  0
  7 27  1  0  0  0  0
  7 28  1  0  0  0  0
  8 29  1  0  0  0  0
  8 30  1  0  0  0  0
  9 12  1  0  0  0  0
  9 31  1  0  0  0  0
  9 32  1  0  0  0  0
 10 11  1  0  0  0  0
 10 15  2  0  0  0  0
 11 12  1  0  0  0  0
 12 33  1  0  0  0  0
 12 34  1  0  0  0  0
 13 16  1  0  0  0  0
 13 17  1  0  0  0  0
 13 35  1  0  0  0  0
 14 36  1  0  0  0  0
 14 37  1  0  0  0  0
 14 38  1  0  0  0  0
 15 18  1  0  0  0  0
 15 39  1  0  0  0  0
 16 40  1  0  0  0  0
 16 41  1  0  0  0  0
 16 42  1  0  0  0  0
 17 19  2  0  0  0  0
 17 43  1  0  0  0  0
 19 20  1  0  0  0  0
 19 45  1  0  0  0  0
 20 21  1  0  0  0  0
 20 22  1  0  0  0  0
 20 46  1  0  0  0  0
 21 23  1  0  0  0  0
 21 24  1  0  0  0  0
 21 47  1  0  0  0  0
 22 48  1  0  0  0  0
 22 49  1  0  0  0  0
 22 50  1  0  0  0  0
 23 51  1  0  0  0  0
 23 52  1  0  0  0  0
 23 53  1  0  0  0  0
 24 54  1  0  0  0  0
 24 55  1  0  0  0  0
 24 56  1  0  0  0  0
M  END
> <PUBCHEM_COMPOUND_CID>
10969647

> <PUBCHEM_CONFORMER_RMSD>
0.8

> <PUBCHEM_CONFORMER_DIVERSEORDER>
1
23
26
31
38
40
4
20
44
19
5
11
13
33
29
12
42
34
22
39
8
28
45
21
15
7
43
16
27
9
18
35
37
2
10
30
41
32
3
24
25
6
36
17
14

> <PUBCHEM_MMFF94_PARTIAL_CHARGES>
16
1 -0.43
10 -0.28
11 0.7
13 0.14
15 -0.14
17 -0.29
18 0.71
19 -0.29
2 -0.68
20 0.14
3 -0.57
39 0.15
43 0.15
44 0.4
45 0.15
5 0.14

> <PUBCHEM_EFFECTIVE_ROTOR_COUNT>
5.2

> <PUBCHEM_PHARMACOPHORE_FEATURES>
9
1 16 hydrophobe
1 2 acceptor
1 2 donor
1 22 hydrophobe
1 3 acceptor
3 21 23 24 hydrophobe
5 1 10 11 15 18 rings
5 4 5 6 7 8 rings
6 4 5 9 10 11 12 rings

> <PUBCHEM_HEAVY_ATOM_COUNT>
24

> <PUBCHEM_ATOM_DEF_STEREO_COUNT>
5

> <PUBCHEM_ATOM_UDEF_STEREO_COUNT>
1

> <PUBCHEM_BOND_DEF_STEREO_COUNT>
1

> <PUBCHEM_BOND_UDEF_STEREO_COUNT>
0

> <PUBCHEM_ISOTOPIC_ATOM_COUNT>
0

> <PUBCHEM_COMPONENT_COUNT>
1

> <PUBCHEM_CACTVS_TAUTO_COUNT>
1

> <PUBCHEM_CONFORMER_ID>
00A7622F00000001

> <PUBCHEM_MMFF94_ENERGY>
58.9803

> <PUBCHEM_FEATURE_SELFOVERLAP>
45.846

> <PUBCHEM_SHAPE_FINGERPRINT>
10 15 18260264191862960456
10411042 1 17907297650987350822
10906281 52 18114194072577135860
11578080 2 17272836852246551008
11646440 116 18412271648833694481
12166972 35 18273498983678655569
12236239 1 17918276433461123199
12516196 113 18272651251386094577
12596602 18 17775291551786300267
12916748 109 18411141320630640957
13073987 5 18336828594195512665
13140716 1 18117278270874343488
13533116 47 14692300495139284558
14170010 4 18410576193213287549
14251764 18 18041277763582793764
14341114 176 18335990796737437449
15048467 5 17988922292812417904
15142383 8 16298376946789536077
15183329 4 18335145276179305341
15196674 1 18336547119176694837
15788980 27 14405179565597208155
1601671 61 18260829267672056437
17349148 13 13183020722340196559
17844677 252 18411426094448417397
18608769 82 18339642347915802763
19141452 34 18410854407903690894
20157964 124 18131353002993337798
21033648 29 18201144504242010465
21267235 1 18409736119090268854
21279426 13 18265614277988778469
21285901 2 18188779339960737999
21421861 104 17750500811707219762
21452121 103 18409443661897785746
21792934 111 18264194846820645953
220451 1 14405185058522887045
22224240 67 18339635737390856872
23035841 295 9943811084348351197
23402539 116 18413103983493704229
23536379 177 18060421305026220979
23559900 14 17917705850717944616
2916195 48 18410852166310388497
300161 21 17918269870049650502
335352 9 18409168814293204262
34797466 226 17561086907885885861
34934 24 18410006654748457102
3545911 37 18411420618269766747
4072396 5 18260822701094179410
4073 2 18113624516700276075
42630746 31 18341896294669225742
4340502 62 18342737429506943150
5104073 3 18262241006753871593
542803 24 17203330005479833897
59755656 215 18335987484405406167
59755656 520 16805318929676832587
7495541 125 13623538969060172061

> <PUBCHEM_SHAPE_MULTIPOLES>
476.3
16.55
2.02
0.99
19.77
0.16
0.01
-3.06
1.28
0.2
-0.04
-0.89
0.07
1

> <PUBCHEM_SHAPE_SELFOVERLAP>
997.746

> <PUBCHEM_SHAPE_VOLUME>
272.6

> <PUBCHEM_COORDINATE_TYPE>
2
5
10

$$$$
