102219747
  -OEChem-08282012252D

 91 96  0     1  0  0  0  0  0999 V2000
    6.8671   -0.2857    0.0000 O   0  0  0  0  0  0  0  0  0  0  0  0
    6.0010   -1.7857    0.0000 O   0  0  0  0  0  0  0  0  0  0  0  0
    5.1350    1.7143    0.0000 O   0  0  0  0  0  0  0  0  0  0  0  0
    8.5991   -3.2857    0.0000 O   0  0  0  0  0  0  0  0  0  0  0  0
    5.1350   -1.2857    0.0000 O   0  0  0  0  0  0  0  0  0  0  0  0
    6.8671    1.7143    0.0000 O   0  0  0  0  0  0  0  0  0  0  0  0
    8.5991   -1.2857    0.0000 O   0  0  0  0  0  0  0  0  0  0  0  0
    3.4030   -0.2857    0.0000 O   0  0  0  0  0  0  0  0  0  0  0  0
    6.8671   -4.2857    0.0000 O   0  0  0  0  0  0  0  0  0  0  0  0
    2.5369    1.2143    0.0000 O   0  0  0  0  0  0  0  0  0  0  0  0
    7.7331    4.2143    0.0000 O   0  0  0  0  0  0  0  0  0  0  0  0
    5.1350    2.7143    0.0000 O   0  0  0  0  0  0  0  0  0  0  0  0
    6.8671   -6.2857    0.0000 O   0  0  0  0  0  0  0  0  0  0  0  0
   10.3312   -6.2857    0.0000 O   0  0  0  0  0  0  0  0  0  0  0  0
    8.5991   -7.2857    0.0000 O   0  0  0  0  0  0  0  0  0  0  0  0
    4.2308    4.2112    0.0000 O   0  0  0  0  0  0  0  0  0  0  0  0
    5.9889    7.2836    0.0000 O   0  0  0  0  0  0  0  0  0  0  0  0
   11.1972    1.2143    0.0000 O   0  0  0  0  0  0  0  0  0  0  0  0
    6.0010    0.2143    0.0000 C   0  0  2  0  0  0  0  0  0  0  0  0
    5.1350   -0.2857    0.0000 C   0  0  2  0  0  0  0  0  0  0  0  0
    6.8671   -1.2857    0.0000 C   0  0  2  0  0  0  0  0  0  0  0  0
    7.7331   -1.7857    0.0000 C   0  0  1  0  0  0  0  0  0  0  0  0
    7.7331   -2.7857    0.0000 C   0  0  1  0  0  0  0  0  0  0  0  0
    4.2690    0.2143    0.0000 C   0  0  2  0  0  0  0  0  0  0  0  0
    6.8671   -3.2857    0.0000 C   0  0  2  0  0  0  0  0  0  0  0  0
    6.0010    1.2143    0.0000 C   0  0  1  0  0  0  0  0  0  0  0  0
    4.2690    1.2143    0.0000 C   0  0  1  0  0  0  0  0  0  0  0  0
    6.0010   -2.7857    0.0000 C   0  0  2  0  0  0  0  0  0  0  0  0
    3.4030    1.7143    0.0000 C   0  0  0  0  0  0  0  0  0  0  0  0
    5.1350   -3.2857    0.0000 C   0  0  0  0  0  0  0  0  0  0  0  0
    8.5991   -4.2857    0.0000 C   0  0  0  0  0  0  0  0  0  0  0  0
    6.8671    2.7143    0.0000 C   0  0  0  0  0  0  0  0  0  0  0  0
    7.7331    3.2143    0.0000 C   0  0  0  0  0  0  0  0  0  0  0  0
    6.0010    3.2143    0.0000 C   0  0  0  0  0  0  0  0  0  0  0  0
    9.4651   -4.7857    0.0000 C   0  0  0  0  0  0  0  0  0  0  0  0
    7.7331   -4.7857    0.0000 C   0  0  0  0  0  0  0  0  0  0  0  0
    6.0010    4.2143    0.0000 C   0  0  0  0  0  0  0  0  0  0  0  0
    7.7331   -5.7857    0.0000 C   0  0  0  0  0  0  0  0  0  0  0  0
    9.4651   -5.7857    0.0000 C   0  0  0  0  0  0  0  0  0  0  0  0
    8.5991    2.7143    0.0000 C   0  0  0  0  0  0  0  0  0  0  0  0
    6.8671    4.7143    0.0000 C   0  0  0  0  0  0  0  0  0  0  0  0
    8.5991   -6.2857    0.0000 C   0  0  0  0  0  0  0  0  0  0  0  0
    5.0910    4.7212    0.0000 C   0  0  0  0  0  0  0  0  0  0  0  0
    6.8831    5.7558    0.0000 C   0  0  0  0  0  0  0  0  0  0  0  0
    8.5991    1.7143    0.0000 C   0  0  0  0  0  0  0  0  0  0  0  0
    9.4651    3.2143    0.0000 C   0  0  0  0  0  0  0  0  0  0  0  0
    5.0830    5.7628    0.0000 C   0  0  0  0  0  0  0  0  0  0  0  0
    5.9851    6.2836    0.0000 C   0  0  0  0  0  0  0  0  0  0  0  0
    9.4651    1.2143    0.0000 C   0  0  0  0  0  0  0  0  0  0  0  0
   10.3312    2.7143    0.0000 C   0  0  0  0  0  0  0  0  0  0  0  0
   10.3312    1.7143    0.0000 C   0  0  0  0  0  0  0  0  0  0  0  0
    6.8671   -7.2857    0.0000 C   0  0  0  0  0  0  0  0  0  0  0  0
   11.1972   -5.7857    0.0000 C   0  0  0  0  0  0  0  0  0  0  0  0
    6.0010   -0.4057    0.0000 H   0  0  0  0  0  0  0  0  0  0  0  0
    4.5981   -0.5957    0.0000 H   0  0  0  0  0  0  0  0  0  0  0  0
    7.4040   -0.9757    0.0000 H   0  0  0  0  0  0  0  0  0  0  0  0
    8.2700   -2.0957    0.0000 H   0  0  0  0  0  0  0  0  0  0  0  0
    7.7331   -3.4057    0.0000 H   0  0  0  0  0  0  0  0  0  0  0  0
    4.2690   -0.4057    0.0000 H   0  0  0  0  0  0  0  0  0  0  0  0
    7.4040   -3.5957    0.0000 H   0  0  0  0  0  0  0  0  0  0  0  0
    6.5380    0.9043    0.0000 H   0  0  0  0  0  0  0  0  0  0  0  0
    4.2690    1.8343    0.0000 H   0  0  0  0  0  0  0  0  0  0  0  0
    5.4641   -2.4757    0.0000 H   0  0  0  0  0  0  0  0  0  0  0  0
    3.8015    2.1893    0.0000 H   0  0  0  0  0  0  0  0  0  0  0  0
    3.0044    2.1893    0.0000 H   0  0  0  0  0  0  0  0  0  0  0  0
    4.8250   -2.7487    0.0000 H   0  0  0  0  0  0  0  0  0  0  0  0
    4.5981   -3.5957    0.0000 H   0  0  0  0  0  0  0  0  0  0  0  0
    5.4450   -3.8226    0.0000 H   0  0  0  0  0  0  0  0  0  0  0  0
    4.5981   -1.5957    0.0000 H   0  0  0  0  0  0  0  0  0  0  0  0
    9.1360   -1.5957    0.0000 H   0  0  0  0  0  0  0  0  0  0  0  0
    3.4030   -0.9057    0.0000 H   0  0  0  0  0  0  0  0  0  0  0  0
    6.3301   -4.5957    0.0000 H   0  0  0  0  0  0  0  0  0  0  0  0
    2.0000    1.5243    0.0000 H   0  0  0  0  0  0  0  0  0  0  0  0
   10.0021   -4.4757    0.0000 H   0  0  0  0  0  0  0  0  0  0  0  0
    7.1962   -4.4757    0.0000 H   0  0  0  0  0  0  0  0  0  0  0  0
    7.4236    6.0596    0.0000 H   0  0  0  0  0  0  0  0  0  0  0  0
    8.0622    1.4043    0.0000 H   0  0  0  0  0  0  0  0  0  0  0  0
    9.4651    3.8343    0.0000 H   0  0  0  0  0  0  0  0  0  0  0  0
    4.5449    6.0707    0.0000 H   0  0  0  0  0  0  0  0  0  0  0  0
    9.4651    0.5943    0.0000 H   0  0  0  0  0  0  0  0  0  0  0  0
   10.8681    3.0243    0.0000 H   0  0  0  0  0  0  0  0  0  0  0  0
    9.1360   -7.5957    0.0000 H   0  0  0  0  0  0  0  0  0  0  0  0
    3.6904    4.5150    0.0000 H   0  0  0  0  0  0  0  0  0  0  0  0
    6.2471   -7.2857    0.0000 H   0  0  0  0  0  0  0  0  0  0  0  0
    6.8671   -7.9057    0.0000 H   0  0  0  0  0  0  0  0  0  0  0  0
    7.4871   -7.2857    0.0000 H   0  0  0  0  0  0  0  0  0  0  0  0
   11.5072   -6.3226    0.0000 H   0  0  0  0  0  0  0  0  0  0  0  0
   11.7341   -5.4757    0.0000 H   0  0  0  0  0  0  0  0  0  0  0  0
   10.8872   -5.2487    0.0000 H   0  0  0  0  0  0  0  0  0  0  0  0
    5.4532    7.5957    0.0000 H   0  0  0  0  0  0  0  0  0  0  0  0
   11.1972    0.5943    0.0000 H   0  0  0  0  0  0  0  0  0  0  0  0
 19  1  1  6  0  0  0
 21  1  1  1  0  0  0
  2 21  1  0  0  0  0
  2 28  1  0  0  0  0
  3 26  1  0  0  0  0
  3 27  1  0  0  0  0
 23  4  1  6  0  0  0
  4 31  1  0  0  0  0
 20  5  1  1  0  0  0
  5 69  1  0  0  0  0
 26  6  1  1  0  0  0
  6 32  1  0  0  0  0
 22  7  1  6  0  0  0
  7 70  1  0  0  0  0
 24  8  1  1  0  0  0
  8 71  1  0  0  0  0
 25  9  1  1  0  0  0
  9 72  1  0  0  0  0
 10 29  1  0  0  0  0
 10 73  1  0  0  0  0
 11 33  1  0  0  0  0
 11 41  1  0  0  0  0
 12 34  2  0  0  0  0
 13 38  1  0  0  0  0
 13 52  1  0  0  0  0
 14 39  1  0  0  0  0
 14 53  1  0  0  0  0
 15 42  1  0  0  0  0
 15 82  1  0  0  0  0
 16 43  1  0  0  0  0
 16 83  1  0  0  0  0
 17 48  1  0  0  0  0
 17 90  1  0  0  0  0
 18 51  1  0  0  0  0
 18 91  1  0  0  0  0
 19 20  1  0  0  0  0
 19 26  1  0  0  0  0
 19 54  1  0  0  0  0
 20 24  1  0  0  0  0
 20 55  1  0  0  0  0
 21 22  1  0  0  0  0
 21 56  1  0  0  0  0
 22 23  1  0  0  0  0
 22 57  1  0  0  0  0
 23 25  1  0  0  0  0
 23 58  1  0  0  0  0
 24 27  1  0  0  0  0
 24 59  1  0  0  0  0
 25 28  1  0  0  0  0
 25 60  1  0  0  0  0
 26 61  1  0  0  0  0
 27 29  1  1  0  0  0
 27 62  1  0  0  0  0
 28 30  1  6  0  0  0
 28 63  1  0  0  0  0
 29 64  1  0  0  0  0
 29 65  1  0  0  0  0
 30 66  1  0  0  0  0
 30 67  1  0  0  0  0
 30 68  1  0  0  0  0
 31 35  2  0  0  0  0
 31 36  1  0  0  0  0
 32 33  2  0  0  0  0
 32 34  1  0  0  0  0
 33 40  1  0  0  0  0
 34 37  1  0  0  0  0
 35 39  1  0  0  0  0
 35 74  1  0  0  0  0
 36 38  2  0  0  0  0
 36 75  1  0  0  0  0
 37 41  1  0  0  0  0
 37 43  2  0  0  0  0
 38 42  1  0  0  0  0
 39 42  2  0  0  0  0
 40 45  2  0  0  0  0
 40 46  1  0  0  0  0
 41 44  2  0  0  0  0
 43 47  1  0  0  0  0
 44 48  1  0  0  0  0
 44 76  1  0  0  0  0
 45 49  1  0  0  0  0
 45 77  1  0  0  0  0
 46 50  2  0  0  0  0
 46 78  1  0  0  0  0
 47 48  2  0  0  0  0
 47 79  1  0  0  0  0
 49 51  2  0  0  0  0
 49 80  1  0  0  0  0
 50 51  1  0  0  0  0
 50 81  1  0  0  0  0
 52 84  1  0  0  0  0
 52 85  1  0  0  0  0
 52 86  1  0  0  0  0
 53 87  1  0  0  0  0
 53 88  1  0  0  0  0
 53 89  1  0  0  0  0
M  END
> <PUBCHEM_COMPOUND_CID>
102219747

> <PUBCHEM_COMPOUND_CANONICALIZED>
1

> <PUBCHEM_CACTVS_COMPLEXITY>
1250

> <PUBCHEM_CACTVS_HBOND_ACCEPTOR>
18

> <PUBCHEM_CACTVS_HBOND_DONOR>
9

> <PUBCHEM_CACTVS_ROTATABLE_BOND>
10

> <PUBCHEM_CACTVS_SUBSKEYS>
AAADcfB8PgAAAAAAAAAAAAAAAAAAAAAAAAA0aMECAAAAAACBUAAAGgAACAAADBSwmAMyDoAABgCIAqBSAAICCAAkIAAIiAFGiMgdNzaGNR6ieWOl4BUPuQfI7KzOIQAACAAIQABCAAAQABCAAAAAAAAAAA==

> <PUBCHEM_IUPAC_OPENEYE_NAME>
3-[(2S,3R,4S,5R,6R)-3-[(2S,3R,4R,5S,6S)-3,5-dihydroxy-4-(4-hydroxy-3,5-dimethoxy-phenoxy)-6-methyl-tetrahydropyran-2-yl]oxy-4,5-dihydroxy-6-(hydroxymethyl)tetrahydropyran-2-yl]oxy-5,7-dihydroxy-2-(4-hydroxyphenyl)chromen-4-one

> <PUBCHEM_IUPAC_CAS_NAME>
3-[[(2S,3R,4S,5R,6R)-3-[[(2S,3R,4R,5S,6S)-3,5-dihydroxy-4-(4-hydroxy-3,5-dimethoxyphenoxy)-6-methyl-2-oxanyl]oxy]-4,5-dihydroxy-6-(hydroxymethyl)-2-oxanyl]oxy]-5,7-dihydroxy-2-(4-hydroxyphenyl)-1-benzopyran-4-one

> <PUBCHEM_IUPAC_NAME_MARKUP>
3-[(2<I>S</I>,3<I>R</I>,4<I>S</I>,5<I>R</I>,6<I>R</I>)-3-[(2<I>S</I>,3<I>R</I>,4<I>R</I>,5<I>S</I>,6<I>S</I>)-3,5-dihydroxy-4-(4-hydroxy-3,5-dimethoxyphenoxy)-6-methyloxan-2-yl]oxy-4,5-dihydroxy-6-(hydroxymethyl)oxan-2-yl]oxy-5,7-dihydroxy-2-(4-hydroxyphenyl)chromen-4-one

> <PUBCHEM_IUPAC_NAME>
3-[(2S,3R,4S,5R,6R)-3-[(2S,3R,4R,5S,6S)-3,5-dihydroxy-4-(4-hydroxy-3,5-dimethoxyphenoxy)-6-methyloxan-2-yl]oxy-4,5-dihydroxy-6-(hydroxymethyl)oxan-2-yl]oxy-5,7-dihydroxy-2-(4-hydroxyphenyl)chromen-4-one

> <PUBCHEM_IUPAC_SYSTEMATIC_NAME>
3-[(2S,3R,4S,5R,6R)-3-[(2S,3R,4R,5S,6S)-4-(3,5-dimethoxy-4-oxidanyl-phenoxy)-6-methyl-3,5-bis(oxidanyl)oxan-2-yl]oxy-6-(hydroxymethyl)-4,5-bis(oxidanyl)oxan-2-yl]oxy-2-(4-hydroxyphenyl)-5,7-bis(oxidanyl)chromen-4-one

> <PUBCHEM_IUPAC_TRADITIONAL_NAME>
3-[(2S,3R,4S,5R,6R)-3-[(2S,3R,4R,5S,6S)-3,5-dihydroxy-4-(4-hydroxy-3,5-dimethoxy-phenoxy)-6-methyl-tetrahydropyran-2-yl]oxy-4,5-dihydroxy-6-methylol-tetrahydropyran-2-yl]oxy-5,7-dihydroxy-2-(4-hydroxyphenyl)chromone

> <PUBCHEM_IUPAC_INCHI>
InChI=1S/C35H38O18/c1-13-24(40)31(49-17-10-20(46-2)25(41)21(11-17)47-3)29(45)34(48-13)53-33-28(44)26(42)22(12-36)51-35(33)52-32-27(43)23-18(39)8-16(38)9-19(23)50-30(32)14-4-6-15(37)7-5-14/h4-11,13,22,24,26,28-29,31,33-42,44-45H,12H2,1-3H3/t13-,22+,24-,26-,28-,29+,31+,33+,34-,35-/m0/s1

> <PUBCHEM_IUPAC_INCHIKEY>
SABRITUXDFCZIO-CLWSQMPWSA-N

> <PUBCHEM_XLOGP3_AA>
1.6

> <PUBCHEM_EXACT_MASS>
746.205814

> <PUBCHEM_MOLECULAR_FORMULA>
C35H38O18

> <PUBCHEM_MOLECULAR_WEIGHT>
746.7

> <PUBCHEM_OPENEYE_CAN_SMILES>
CC1C(C(C(C(O1)OC2C(C(C(OC2OC3=C(OC4=CC(=CC(=C4C3=O)O)O)C5=CC=C(C=C5)O)CO)O)O)O)OC6=CC(=C(C(=C6)OC)O)OC)O

> <PUBCHEM_OPENEYE_ISO_SMILES>
C[C@H]1[C@@H]([C@H]([C@H]([C@@H](O1)O[C@@H]2[C@H]([C@H]([C@H](O[C@H]2OC3=C(OC4=CC(=CC(=C4C3=O)O)O)C5=CC=C(C=C5)O)CO)O)O)O)OC6=CC(=C(C(=C6)OC)O)OC)O

> <PUBCHEM_CACTVS_TPSA>
273

> <PUBCHEM_MONOISOTOPIC_WEIGHT>
746.205814

> <PUBCHEM_TOTAL_CHARGE>
0

> <PUBCHEM_HEAVY_ATOM_COUNT>
53

> <PUBCHEM_ATOM_DEF_STEREO_COUNT>
10

> <PUBCHEM_ATOM_UDEF_STEREO_COUNT>
0

> <PUBCHEM_BOND_DEF_STEREO_COUNT>
0

> <PUBCHEM_BOND_UDEF_STEREO_COUNT>
0

> <PUBCHEM_ISOTOPIC_ATOM_COUNT>
0

> <PUBCHEM_COMPONENT_COUNT>
1

> <PUBCHEM_CACTVS_TAUTO_COUNT>
-1

> <PUBCHEM_COORDINATE_TYPE>
1
5
255

> <PUBCHEM_BONDANNOTATIONS>
19  1  6
21  1  5
11  33  8
11  41  8
27  29  5
28  30  6
31  35  8
31  36  8
32  33  8
32  34  8
34  37  8
35  39  8
36  38  8
37  41  8
37  43  8
38  42  8
39  42  8
23  4  6
40  45  8
40  46  8
41  44  8
43  47  8
44  48  8
45  49  8
46  50  8
47  48  8
49  51  8
20  5  5
50  51  8
26  6  5
22  7  6
24  8  5
25  9  5

$$$$
