195797
  -OEChem-08282010092D

181188  0     1  0  0  0  0  0999 V2000
    3.7320   -0.0167    0.0000 O   0  0  0  0  0  0  0  0  0  0  0  0
    5.4641   -1.0167    0.0000 O   0  0  0  0  0  0  0  0  0  0  0  0
    3.7320    0.9833    0.0000 O   0  0  0  0  0  0  0  0  0  0  0  0
    8.9282   -3.0167    0.0000 O   0  0  0  0  0  0  0  0  0  0  0  0
    5.4642    1.9832    0.0000 O   0  0  0  0  0  0  0  0  0  0  0  0
    9.6206    3.4681    0.0000 O   0  0  0  0  0  0  0  0  0  0  0  0
    8.9282    3.9833    0.0000 O   0  0  0  0  0  0  0  0  0  0  0  0
   11.1211    0.3700    0.0000 O   0  0  0  0  0  0  0  0  0  0  0  0
   11.5263    1.4833    0.0000 O   0  0  0  0  0  0  0  0  0  0  0  0
   11.3923    2.9834    0.0000 O   0  0  0  0  0  0  0  0  0  0  0  0
    7.0622    1.4834    0.0000 O   0  0  0  0  0  0  0  0  0  0  0  0
   12.8531   -1.6300    0.0000 O   0  0  0  0  0  0  0  0  0  0  0  0
   10.1603    0.8493    0.0000 O   0  0  0  0  0  0  0  0  0  0  0  0
    5.8280   -6.7754    0.0000 O   0  0  0  0  0  0  0  0  0  0  0  0
   12.3923    5.9833    0.0000 O   0  0  0  0  0  0  0  0  0  0  0  0
    2.0000    5.9833    0.0000 O   0  0  0  0  0  0  0  0  0  0  0  0
   11.7226   -3.8148    0.0000 O   0  0  0  0  0  0  0  0  0  0  0  0
    6.7050    6.7135    0.0000 O   0  0  0  0  0  0  0  0  0  0  0  0
    5.4641   -0.0167    0.0000 N   0  0  0  0  0  0  0  0  0  0  0  0
    5.4641   -2.0167    0.0000 N   0  0  0  0  0  0  0  0  0  0  0  0
    4.5981    2.4833    0.0000 N   0  0  0  0  0  0  0  0  0  0  0  0
    8.0622   -1.5167    0.0000 N   0  0  0  0  0  0  0  0  0  0  0  0
   10.6603    2.9833    0.0000 N   0  0  0  0  0  0  0  0  0  0  0  0
   13.2583    2.4833    0.0000 N   0  0  0  0  0  0  0  0  0  0  0  0
    7.1962    2.9833    0.0000 N   0  0  0  0  0  0  0  0  0  0  0  0
    8.9282    0.9833    0.0000 N   0  0  0  0  0  0  0  0  0  0  0  0
    9.7942   -0.5167    0.0000 N   0  0  0  0  0  0  0  0  0  0  0  0
    9.7942    5.4833    0.0000 N   0  0  0  0  0  0  0  0  0  0  0  0
   12.3923   -0.0167    0.0000 N   0  0  0  0  0  0  0  0  0  0  0  0
   11.5263    4.4833    0.0000 N   0  0  0  0  0  0  0  0  0  0  0  0
   10.3958   -4.9282    0.0000 N   0  0  0  0  0  0  0  0  0  0  0  0
    4.5981   -1.5167    0.0000 C   0  0  1  0  0  0  0  0  0  0  0  0
    5.4641    0.9833    0.0000 C   0  0  1  0  0  0  0  0  0  0  0  0
    3.8611   -2.1838    0.0000 C   0  0  0  0  0  0  0  0  0  0  0  0
    4.2662   -3.0915    0.0000 C   0  0  0  0  0  0  0  0  0  0  0  0
    6.4103    1.2880    0.0000 C   0  0  0  0  0  0  0  0  0  0  0  0
    6.4103   -0.3214    0.0000 C   0  0  0  0  0  0  0  0  0  0  0  0
    5.2549   -2.9885    0.0000 C   0  0  0  0  0  0  0  0  0  0  0  0
    4.5981   -0.5167    0.0000 C   0  0  0  0  0  0  0  0  0  0  0  0
    6.9939    0.4833    0.0000 C   0  0  0  0  0  0  0  0  0  0  0  0
    6.3301   -1.5167    0.0000 C   0  0  0  0  0  0  0  0  0  0  0  0
    4.5981    1.4833    0.0000 C   0  0  0  0  0  0  0  0  0  0  0  0
    7.1962   -2.0167    0.0000 C   0  0  2  0  0  0  0  0  0  0  0  0
    7.1962   -3.0167    0.0000 C   0  0  0  0  0  0  0  0  0  0  0  0
    5.4641    2.9833    0.0000 C   0  0  1  0  0  0  0  0  0  0  0  0
   10.6603    3.9833    0.0000 C   0  0  1  0  0  0  0  0  0  0  0  0
    9.3192    4.6504    0.0000 C   0  0  0  0  0  0  0  0  0  0  0  0
    8.3804    3.4833    0.0000 C   0  0  0  0  0  0  0  0  0  0  0  0
    9.3192    2.3163    0.0000 C   0  0  0  0  0  0  0  0  0  0  0  0
    5.4641    3.9833    0.0000 C   0  0  0  0  0  0  0  0  0  0  0  0
    6.8541   -3.9564    0.0000 C   0  0  0  0  0  0  0  0  0  0  0  0
   13.2583    1.4833    0.0000 C   0  0  1  0  0  0  0  0  0  0  0  0
    8.9282   -2.0167    0.0000 C   0  0  0  0  0  0  0  0  0  0  0  0
   14.2045    1.1786    0.0000 C   0  0  0  0  0  0  0  0  0  0  0  0
    6.3301    2.4833    0.0000 C   0  0  0  0  0  0  0  0  0  0  0  0
    9.7942    2.4833    0.0000 C   0  0  0  0  0  0  0  0  0  0  0  0
   14.7882    1.9833    0.0000 C   0  0  0  0  0  0  0  0  0  0  0  0
   14.2045    2.7880    0.0000 C   0  0  0  0  0  0  0  0  0  0  0  0
    9.7942   -1.5167    0.0000 C   0  0  2  0  0  0  0  0  0  0  0  0
    9.7942    1.4833    0.0000 C   0  0  3  0  0  0  0  0  0  0  0  0
    9.7942    4.4833    0.0000 C   0  0  0  0  0  0  0  0  0  0  0  0
    8.0622    2.4833    0.0000 C   0  0  2  0  0  0  0  0  0  0  0  0
   12.3923    0.9833    0.0000 C   0  0  0  0  0  0  0  0  0  0  0  0
    4.5981    4.4833    0.0000 C   0  0  0  0  0  0  0  0  0  0  0  0
   10.7790    1.3097    0.0000 C   0  0  1  0  0  0  0  0  0  0  0  0
   10.4370   -2.2827    0.0000 C   0  0  0  0  0  0  0  0  0  0  0  0
    7.4970   -4.7224    0.0000 C   0  0  0  0  0  0  0  0  0  0  0  0
    5.8693   -4.1300    0.0000 C   0  0  0  0  0  0  0  0  0  0  0  0
   11.5263   -0.5167    0.0000 C   0  0  2  0  0  0  0  0  0  0  0  0
   12.3923    2.9833    0.0000 C   0  0  0  0  0  0  0  0  0  0  0  0
    8.0622    1.4833    0.0000 C   0  0  0  0  0  0  0  0  0  0  0  0
   10.6603    5.9833    0.0000 C   0  0  2  0  0  0  0  0  0  0  0  0
    8.7050    3.2494    0.0000 C   0  0  0  0  0  0  0  0  0  0  0  0
   10.6603   -0.0167    0.0000 C   0  0  0  0  0  0  0  0  0  0  0  0
   12.3923    3.9833    0.0000 C   0  0  0  0  0  0  0  0  0  0  0  0
   11.8684   -1.4563    0.0000 C   0  0  1  0  0  0  0  0  0  0  0  0
   10.0950   -3.2224    0.0000 C   0  0  0  0  0  0  0  0  0  0  0  0
   11.4218    2.0757    0.0000 C   0  0  0  0  0  0  0  0  0  0  0  0
    7.1549   -5.6621    0.0000 C   0  0  0  0  0  0  0  0  0  0  0  0
    5.5272   -5.0697    0.0000 C   0  0  0  0  0  0  0  0  0  0  0  0
    3.7320    3.9833    0.0000 C   0  0  0  0  0  0  0  0  0  0  0  0
    4.5981    5.4833    0.0000 C   0  0  0  0  0  0  0  0  0  0  0  0
   11.5263    5.4833    0.0000 C   0  0  0  0  0  0  0  0  0  0  0  0
    6.1701   -5.8358    0.0000 C   0  0  0  0  0  0  0  0  0  0  0  0
   10.6603    6.9833    0.0000 C   0  0  0  0  0  0  0  0  0  0  0  0
    8.2050    4.1154    0.0000 C   0  0  0  0  0  0  0  0  0  0  0  0
   11.2255   -2.2224    0.0000 C   0  0  0  0  0  0  0  0  0  0  0  0
    2.8660    4.4833    0.0000 C   0  0  0  0  0  0  0  0  0  0  0  0
    3.7320    5.9833    0.0000 C   0  0  0  0  0  0  0  0  0  0  0  0
   10.7378   -3.9885    0.0000 C   0  0  0  0  0  0  0  0  0  0  0  0
    2.8660    5.4833    0.0000 C   0  0  0  0  0  0  0  0  0  0  0  0
    8.7050    4.9814    0.0000 C   0  0  0  0  0  0  0  0  0  0  0  0
    7.2050    4.1154    0.0000 C   0  0  0  0  0  0  0  0  0  0  0  0
    8.2050    5.8474    0.0000 C   0  0  0  0  0  0  0  0  0  0  0  0
    6.7050    4.9814    0.0000 C   0  0  0  0  0  0  0  0  0  0  0  0
    7.2050    5.8474    0.0000 C   0  0  0  0  0  0  0  0  0  0  0  0
    3.8211   -1.1720    0.0000 H   0  0  0  0  0  0  0  0  0  0  0  0
    5.5540    1.8285    0.0000 H   0  0  0  0  0  0  0  0  0  0  0  0
    3.4956   -1.6829    0.0000 H   0  0  0  0  0  0  0  0  0  0  0  0
    3.3246   -2.4945    0.0000 H   0  0  0  0  0  0  0  0  0  0  0  0
    3.6766   -3.2833    0.0000 H   0  0  0  0  0  0  0  0  0  0  0  0
    4.3949   -3.6980    0.0000 H   0  0  0  0  0  0  0  0  0  0  0  0
    6.9477    1.5973    0.0000 H   0  0  0  0  0  0  0  0  0  0  0  0
    6.1593    1.8550    0.0000 H   0  0  0  0  0  0  0  0  0  0  0  0
    6.1593   -0.8883    0.0000 H   0  0  0  0  0  0  0  0  0  0  0  0
    6.9477   -0.6306    0.0000 H   0  0  0  0  0  0  0  0  0  0  0  0
    5.2540   -3.6085    0.0000 H   0  0  0  0  0  0  0  0  0  0  0  0
    5.8714   -3.0546    0.0000 H   0  0  0  0  0  0  0  0  0  0  0  0
    7.4548    0.0686    0.0000 H   0  0  0  0  0  0  0  0  0  0  0  0
    7.4548    0.8980    0.0000 H   0  0  0  0  0  0  0  0  0  0  0  0
    7.7331   -2.3267    0.0000 H   0  0  0  0  0  0  0  0  0  0  0  0
    4.0611    2.7933    0.0000 H   0  0  0  0  0  0  0  0  0  0  0  0
    7.6471   -3.4422    0.0000 H   0  0  0  0  0  0  0  0  0  0  0  0
    6.5856   -2.9090    0.0000 H   0  0  0  0  0  0  0  0  0  0  0  0
    4.9272    3.2933    0.0000 H   0  0  0  0  0  0  0  0  0  0  0  0
    8.0622   -0.8967    0.0000 H   0  0  0  0  0  0  0  0  0  0  0  0
   11.3964    4.4083    0.0000 H   0  0  0  0  0  0  0  0  0  0  0  0
    9.6345    5.1842    0.0000 H   0  0  0  0  0  0  0  0  0  0  0  0
    8.8094    5.0032    0.0000 H   0  0  0  0  0  0  0  0  0  0  0  0
    7.9265    3.9057    0.0000 H   0  0  0  0  0  0  0  0  0  0  0  0
    7.9265    3.0610    0.0000 H   0  0  0  0  0  0  0  0  0  0  0  0
    8.8094    1.9634    0.0000 H   0  0  0  0  0  0  0  0  0  0  0  0
    9.6345    1.7824    0.0000 H   0  0  0  0  0  0  0  0  0  0  0  0
    6.0747    3.8756    0.0000 H   0  0  0  0  0  0  0  0  0  0  0  0
    5.6762    4.5659    0.0000 H   0  0  0  0  0  0  0  0  0  0  0  0
   13.3483    0.6381    0.0000 H   0  0  0  0  0  0  0  0  0  0  0  0
   13.9535    0.6117    0.0000 H   0  0  0  0  0  0  0  0  0  0  0  0
   14.7419    0.8694    0.0000 H   0  0  0  0  0  0  0  0  0  0  0  0
   15.2490    1.5686    0.0000 H   0  0  0  0  0  0  0  0  0  0  0  0
   15.2490    2.3980    0.0000 H   0  0  0  0  0  0  0  0  0  0  0  0
   14.7419    3.0973    0.0000 H   0  0  0  0  0  0  0  0  0  0  0  0
   13.9535    3.3550    0.0000 H   0  0  0  0  0  0  0  0  0  0  0  0
    9.9019    0.8727    0.0000 H   0  0  0  0  0  0  0  0  0  0  0  0
   10.3768   -1.3046    0.0000 H   0  0  0  0  0  0  0  0  0  0  0  0
    7.9545    3.0939    0.0000 H   0  0  0  0  0  0  0  0  0  0  0  0
    6.8862    3.5202    0.0000 H   0  0  0  0  0  0  0  0  0  0  0  0
   11.3896    1.2020    0.0000 H   0  0  0  0  0  0  0  0  0  0  0  0
   10.9740   -2.5927    0.0000 H   0  0  0  0  0  0  0  0  0  0  0  0
   10.8355   -1.8078    0.0000 H   0  0  0  0  0  0  0  0  0  0  0  0
    8.9282    0.3633    0.0000 H   0  0  0  0  0  0  0  0  0  0  0  0
    8.1075   -4.6147    0.0000 H   0  0  0  0  0  0  0  0  0  0  0  0
    5.4708   -3.6550    0.0000 H   0  0  0  0  0  0  0  0  0  0  0  0
   12.3250   -0.8074    0.0000 H   0  0  0  0  0  0  0  0  0  0  0  0
    9.2573   -0.2067    0.0000 H   0  0  0  0  0  0  0  0  0  0  0  0
    9.2573    5.7933    0.0000 H   0  0  0  0  0  0  0  0  0  0  0  0
   12.9292   -0.3267    0.0000 H   0  0  0  0  0  0  0  0  0  0  0  0
   10.1233    6.2933    0.0000 H   0  0  0  0  0  0  0  0  0  0  0  0
    9.1304    2.7984    0.0000 H   0  0  0  0  0  0  0  0  0  0  0  0
    9.2023    3.6196    0.0000 H   0  0  0  0  0  0  0  0  0  0  0  0
   13.0029    3.8756    0.0000 H   0  0  0  0  0  0  0  0  0  0  0  0
   12.6044    4.5659    0.0000 H   0  0  0  0  0  0  0  0  0  0  0  0
   12.2669   -0.9814    0.0000 H   0  0  0  0  0  0  0  0  0  0  0  0
    9.5581   -2.9124    0.0000 H   0  0  0  0  0  0  0  0  0  0  0  0
    9.6965   -3.6974    0.0000 H   0  0  0  0  0  0  0  0  0  0  0  0
   11.8968    1.6772    0.0000 H   0  0  0  0  0  0  0  0  0  0  0  0
   11.8204    2.5507    0.0000 H   0  0  0  0  0  0  0  0  0  0  0  0
   10.9469    2.4742    0.0000 H   0  0  0  0  0  0  0  0  0  0  0  0
    7.5534   -6.1371    0.0000 H   0  0  0  0  0  0  0  0  0  0  0  0
    4.9167   -5.1773    0.0000 H   0  0  0  0  0  0  0  0  0  0  0  0
    3.7320    3.3633    0.0000 H   0  0  0  0  0  0  0  0  0  0  0  0
    5.1350    5.7933    0.0000 H   0  0  0  0  0  0  0  0  0  0  0  0
   10.9894    4.7934    0.0000 H   0  0  0  0  0  0  0  0  0  0  0  0
   11.2803    6.9833    0.0000 H   0  0  0  0  0  0  0  0  0  0  0  0
   10.6603    7.6033    0.0000 H   0  0  0  0  0  0  0  0  0  0  0  0
   10.0403    6.9833    0.0000 H   0  0  0  0  0  0  0  0  0  0  0  0
   11.7316    0.2623    0.0000 H   0  0  0  0  0  0  0  0  0  0  0  0
   10.7506   -1.8239    0.0000 H   0  0  0  0  0  0  0  0  0  0  0  0
   10.8270   -2.6974    0.0000 H   0  0  0  0  0  0  0  0  0  0  0  0
   11.7005   -2.6210    0.0000 H   0  0  0  0  0  0  0  0  0  0  0  0
    2.3291    4.1733    0.0000 H   0  0  0  0  0  0  0  0  0  0  0  0
    3.7320    6.6033    0.0000 H   0  0  0  0  0  0  0  0  0  0  0  0
   13.2516   -1.1551    0.0000 H   0  0  0  0  0  0  0  0  0  0  0  0
    9.3250    4.9814    0.0000 H   0  0  0  0  0  0  0  0  0  0  0  0
    6.8950    3.5784    0.0000 H   0  0  0  0  0  0  0  0  0  0  0  0
    6.2266   -7.2504    0.0000 H   0  0  0  0  0  0  0  0  0  0  0  0
    8.5150    6.3844    0.0000 H   0  0  0  0  0  0  0  0  0  0  0  0
    6.0850    4.9814    0.0000 H   0  0  0  0  0  0  0  0  0  0  0  0
   10.7943   -5.4031    0.0000 H   0  0  0  0  0  0  0  0  0  0  0  0
    9.7852   -5.0358    0.0000 H   0  0  0  0  0  0  0  0  0  0  0  0
    2.0000    6.6033    0.0000 H   0  0  0  0  0  0  0  0  0  0  0  0
    7.0150    7.2504    0.0000 H   0  0  0  0  0  0  0  0  0  0  0  0
  1 39  2  0  0  0  0
  2 41  2  0  0  0  0
  3 42  2  0  0  0  0
  4 53  2  0  0  0  0
  5 55  2  0  0  0  0
  6 56  2  0  0  0  0
  7 61  2  0  0  0  0
 65  8  1  1  0  0  0
  8166  1  0  0  0  0
  9 63  2  0  0  0  0
 10 70  2  0  0  0  0
 11 71  2  0  0  0  0
 76 12  1  6  0  0  0
 12172  1  0  0  0  0
 13 74  2  0  0  0  0
 14 84  1  0  0  0  0
 14175  1  0  0  0  0
 15 83  2  0  0  0  0
 16 91  1  0  0  0  0
 16180  1  0  0  0  0
 17 90  2  0  0  0  0
 18 96  1  0  0  0  0
 18181  1  0  0  0  0
 19 33  1  0  0  0  0
 19 37  1  0  0  0  0
 19 39  1  0  0  0  0
 20 32  1  0  0  0  0
 20 38  1  0  0  0  0
 20 41  1  0  0  0  0
 21 42  1  0  0  0  0
 21 45  1  0  0  0  0
 21112  1  0  0  0  0
 22 43  1  0  0  0  0
 22 53  1  0  0  0  0
 22116  1  0  0  0  0
 23 46  1  0  0  0  0
 23 49  1  0  0  0  0
 23 56  1  0  0  0  0
 24 52  1  0  0  0  0
 24 58  1  0  0  0  0
 24 70  1  0  0  0  0
 25 55  1  0  0  0  0
 25 62  1  0  0  0  0
 25136  1  0  0  0  0
 26 60  1  0  0  0  0
 26 71  1  0  0  0  0
 26140  1  0  0  0  0
 27 59  1  0  0  0  0
 27 74  1  0  0  0  0
 27144  1  0  0  0  0
 28 61  1  0  0  0  0
 28 72  1  0  0  0  0
 28145  1  0  0  0  0
 29 63  1  0  0  0  0
 29 69  1  0  0  0  0
 29146  1  0  0  0  0
 30 75  1  0  0  0  0
 30 83  1  0  0  0  0
 30162  1  0  0  0  0
 31 90  1  0  0  0  0
 31178  1  0  0  0  0
 31179  1  0  0  0  0
 32 34  1  0  0  0  0
 32 39  1  0  0  0  0
 32 97  1  6  0  0  0
 33 36  1  0  0  0  0
 33 42  1  0  0  0  0
 33 98  1  1  0  0  0
 34 35  1  0  0  0  0
 34 99  1  0  0  0  0
 34100  1  0  0  0  0
 35 38  1  0  0  0  0
 35101  1  0  0  0  0
 35102  1  0  0  0  0
 36 40  1  0  0  0  0
 36103  1  0  0  0  0
 36104  1  0  0  0  0
 37 40  1  0  0  0  0
 37105  1  0  0  0  0
 37106  1  0  0  0  0
 38107  1  0  0  0  0
 38108  1  0  0  0  0
 40109  1  0  0  0  0
 40110  1  0  0  0  0
 41 43  1  0  0  0  0
 43 44  1  1  0  0  0
 43111  1  0  0  0  0
 44 51  1  0  0  0  0
 44113  1  0  0  0  0
 44114  1  0  0  0  0
 45 50  1  1  0  0  0
 45 55  1  0  0  0  0
 45115  1  0  0  0  0
 46 47  1  0  0  0  0
 46 61  1  0  0  0  0
 46117  1  6  0  0  0
 47 48  1  0  0  0  0
 47118  1  0  0  0  0
 47119  1  0  0  0  0
 48 49  1  0  0  0  0
 48120  1  0  0  0  0
 48121  1  0  0  0  0
 49122  1  0  0  0  0
 49123  1  0  0  0  0
 50 64  1  0  0  0  0
 50124  1  0  0  0  0
 50125  1  0  0  0  0
 51 67  2  0  0  0  0
 51 68  1  0  0  0  0
 52 54  1  0  0  0  0
 52 63  1  0  0  0  0
 52126  1  6  0  0  0
 53 59  1  0  0  0  0
 54 57  1  0  0  0  0
 54127  1  0  0  0  0
 54128  1  0  0  0  0
 56 60  1  0  0  0  0
 57 58  1  0  0  0  0
 57129  1  0  0  0  0
 57130  1  0  0  0  0
 58131  1  0  0  0  0
 58132  1  0  0  0  0
 59 66  1  1  0  0  0
 59134  1  0  0  0  0
 60 65  1  0  0  0  0
 60133  1  0  0  0  0
 62 71  1  0  0  0  0
 62 73  1  1  0  0  0
 62135  1  0  0  0  0
 64 81  2  0  0  0  0
 64 82  1  0  0  0  0
 65 78  1  0  0  0  0
 65137  1  0  0  0  0
 66 77  1  0  0  0  0
 66138  1  0  0  0  0
 66139  1  0  0  0  0
 67 79  1  0  0  0  0
 67141  1  0  0  0  0
 68 80  2  0  0  0  0
 68142  1  0  0  0  0
 69 74  1  0  0  0  0
 69 76  1  0  0  0  0
 69143  1  6  0  0  0
 70 75  1  0  0  0  0
 72 83  1  0  0  0  0
 72 85  1  1  0  0  0
 72147  1  0  0  0  0
 73 86  1  0  0  0  0
 73148  1  0  0  0  0
 73149  1  0  0  0  0
 75150  1  0  0  0  0
 75151  1  0  0  0  0
 76 87  1  0  0  0  0
 76152  1  0  0  0  0
 77 90  1  0  0  0  0
 77153  1  0  0  0  0
 77154  1  0  0  0  0
 78155  1  0  0  0  0
 78156  1  0  0  0  0
 78157  1  0  0  0  0
 79 84  2  0  0  0  0
 79158  1  0  0  0  0
 80 84  1  0  0  0  0
 80159  1  0  0  0  0
 81 88  1  0  0  0  0
 81160  1  0  0  0  0
 82 89  2  0  0  0  0
 82161  1  0  0  0  0
 85163  1  0  0  0  0
 85164  1  0  0  0  0
 85165  1  0  0  0  0
 86 92  2  0  0  0  0
 86 93  1  0  0  0  0
 87167  1  0  0  0  0
 87168  1  0  0  0  0
 87169  1  0  0  0  0
 88 91  2  0  0  0  0
 88170  1  0  0  0  0
 89 91  1  0  0  0  0
 89171  1  0  0  0  0
 92 94  1  0  0  0  0
 92173  1  0  0  0  0
 93 95  2  0  0  0  0
 93174  1  0  0  0  0
 94 96  2  0  0  0  0
 94176  1  0  0  0  0
 95 96  1  0  0  0  0
 95177  1  0  0  0  0
M  END
> <PUBCHEM_COMPOUND_CID>
195797

> <PUBCHEM_COMPOUND_CANONICALIZED>
1

> <PUBCHEM_CACTVS_COMPLEXITY>
2830

> <PUBCHEM_CACTVS_HBOND_ACCEPTOR>
18

> <PUBCHEM_CACTVS_HBOND_DONOR>
14

> <PUBCHEM_CACTVS_ROTATABLE_BOND>
11

> <PUBCHEM_CACTVS_SUBSKEYS>
AAADcfB//gAAAAAAAAAAAAAAAAAAAWLFiwAwYMAAAAAAAAABUAAAHgAQCAAADDzhmAYyBoPAAgCIAiFSEAACAAAgIAAIiIGOCIgKdjaCkTOUcAAm9hGYmAecy6COIAAAAAAAAABAAAAAAAAAAAAAAAAAAA==

> <PUBCHEM_IUPAC_OPENEYE_NAME>
3-[(3S,9S,12S,15S,18S,27S,30S,39S,42S,45S)-15,36-bis[(1R)-1-hydroxyethyl]-9,39,42-tris[(4-hydroxyphenyl)methyl]-27-methyl-2,8,11,14,17,23,26,29,35,38,41,44-dodecaoxo-1,7,10,13,16,22,25,28,34,37,40,43-dodecazapentacyclo[43.3.0.03,7.018,22.030,34]octatetracontan-12-yl]propanamide

> <PUBCHEM_IUPAC_CAS_NAME>
3-[(3S,9S,12S,15S,18S,27S,30S,39S,42S,45S)-15,36-bis[(1R)-1-hydroxyethyl]-9,39,42-tris[(4-hydroxyphenyl)methyl]-27-methyl-2,8,11,14,17,23,26,29,35,38,41,44-dodecaoxo-1,7,10,13,16,22,25,28,34,37,40,43-dodecazapentacyclo[43.3.0.03,7.018,22.030,34]octatetracontan-12-yl]propanamide

> <PUBCHEM_IUPAC_NAME_MARKUP>
3-[(3<I>S</I>,9<I>S</I>,12<I>S</I>,15<I>S</I>,18<I>S</I>,27<I>S</I>,30<I>S</I>,39<I>S</I>,42<I>S</I>,45<I>S</I>)-15,36-bis[(1<I>R</I>)-1-hydroxyethyl]-9,39,42-tris[(4-hydroxyphenyl)methyl]-27-methyl-2,8,11,14,17,23,26,29,35,38,41,44-dodecaoxo-1,7,10,13,16,22,25,28,34,37,40,43-dodecazapentacyclo[43.3.0.0<SUP>3,7</SUP>.0<SUP>18,22</SUP>.0<SUP>30,34</SUP>]octatetracontan-12-yl]propanamide

> <PUBCHEM_IUPAC_NAME>
3-[(3S,9S,12S,15S,18S,27S,30S,39S,42S,45S)-15,36-bis[(1R)-1-hydroxyethyl]-9,39,42-tris[(4-hydroxyphenyl)methyl]-27-methyl-2,8,11,14,17,23,26,29,35,38,41,44-dodecaoxo-1,7,10,13,16,22,25,28,34,37,40,43-dodecazapentacyclo[43.3.0.03,7.018,22.030,34]octatetracontan-12-yl]propanamide

> <PUBCHEM_IUPAC_SYSTEMATIC_NAME>
3-[(3S,9S,12S,15S,18S,27S,30S,39S,42S,45S)-9,39,42-tris[(4-hydroxyphenyl)methyl]-27-methyl-15,36-bis[(1R)-1-oxidanylethyl]-2,8,11,14,17,23,26,29,35,38,41,44-dodecakis(oxidanylidene)-1,7,10,13,16,22,25,28,34,37,40,43-dodecazapentacyclo[43.3.0.03,7.018,22.030,34]octatetracontan-12-yl]propanamide

> <PUBCHEM_IUPAC_TRADITIONAL_NAME>
3-[(3S,9S,12S,15S,18S,27S,30S,39S,42S,45S)-9,39,42-tris(4-hydroxybenzyl)-15,36-bis[(1R)-1-hydroxyethyl]-2,8,11,14,17,23,26,29,35,38,41,44-dodecaketo-27-methyl-1,7,10,13,16,22,25,28,34,37,40,43-dodecazapentacyclo[43.3.0.03,7.018,22.030,34]octatetracontan-12-yl]propionamide

> <PUBCHEM_IUPAC_INCHI>
InChI=1S/C65H85N13O18/c1-34-55(86)67-33-52(85)75-26-4-8-47(75)61(92)73-53(35(2)79)62(93)69-43(24-25-51(66)84)56(87)72-46(32-39-16-22-42(83)23-17-39)63(94)78-29-7-11-50(78)64(95)76-27-5-10-49(76)60(91)71-44(30-37-12-18-40(81)19-13-37)57(88)70-45(31-38-14-20-41(82)21-15-38)58(89)74-54(36(3)80)65(96)77-28-6-9-48(77)59(90)68-34/h12-23,34-36,43-50,53-54,79-83H,4-11,24-33H2,1-3H3,(H2,66,84)(H,67,86)(H,68,90)(H,69,93)(H,70,88)(H,71,91)(H,72,87)(H,73,92)(H,74,89)/t34-,35+,36+,43-,44-,45-,46-,47-,48-,49-,50-,53-,54?/m0/s1

> <PUBCHEM_IUPAC_INCHIKEY>
KGOVKRHETJWBCR-RBJHRMQTSA-N

> <PUBCHEM_XLOGP3_AA>
0.2

> <PUBCHEM_EXACT_MASS>
1335.613553

> <PUBCHEM_MOLECULAR_FORMULA>
C65H85N13O18

> <PUBCHEM_MOLECULAR_WEIGHT>
1336.4

> <PUBCHEM_OPENEYE_CAN_SMILES>
CC1C(=O)NCC(=O)N2CCCC2C(=O)NC(C(=O)NC(C(=O)NC(C(=O)N3CCCC3C(=O)N4CCCC4C(=O)NC(C(=O)NC(C(=O)NC(C(=O)N5CCCC5C(=O)N1)C(C)O)CC6=CC=C(C=C6)O)CC7=CC=C(C=C7)O)CC8=CC=C(C=C8)O)CCC(=O)N)C(C)O

> <PUBCHEM_OPENEYE_ISO_SMILES>
C[C@H]1C(=O)NCC(=O)N2CCC[C@H]2C(=O)N[C@H](C(=O)N[C@H](C(=O)N[C@H](C(=O)N3CCC[C@H]3C(=O)N4CCC[C@H]4C(=O)N[C@H](C(=O)N[C@H](C(=O)NC(C(=O)N5CCC[C@H]5C(=O)N1)[C@@H](C)O)CC6=CC=C(C=C6)O)CC7=CC=C(C=C7)O)CC8=CC=C(C=C8)O)CCC(=O)N)[C@@H](C)O

> <PUBCHEM_CACTVS_TPSA>
458

> <PUBCHEM_MONOISOTOPIC_WEIGHT>
1335.613553

> <PUBCHEM_TOTAL_CHARGE>
0

> <PUBCHEM_HEAVY_ATOM_COUNT>
96

> <PUBCHEM_ATOM_DEF_STEREO_COUNT>
12

> <PUBCHEM_ATOM_UDEF_STEREO_COUNT>
1

> <PUBCHEM_BOND_DEF_STEREO_COUNT>
0

> <PUBCHEM_BOND_UDEF_STEREO_COUNT>
0

> <PUBCHEM_ISOTOPIC_ATOM_COUNT>
0

> <PUBCHEM_COMPONENT_COUNT>
1

> <PUBCHEM_CACTVS_TAUTO_COUNT>
-1

> <PUBCHEM_COORDINATE_TYPE>
1
5
255

> <PUBCHEM_BONDANNOTATIONS>
76  12  6
32  97  6
33  98  5
43  44  5
45  50  5
46  117  6
51  67  8
51  68  8
52  126  6
60  56  3
59  66  5
62  73  5
64  81  8
64  82  8
67  79  8
68  80  8
69  143  6
72  85  5
79  84  8
65  8  5
80  84  8
81  88  8
82  89  8
86  92  8
86  93  8
88  91  8
89  91  8
92  94  8
93  95  8
94  96  8
95  96  8

$$$$
