91885068
  -OEChem-08282012292D

 94 99  0     1  0  0  0  0  0999 V2000
    8.0622    2.3450    0.0000 O   0  0  0  0  0  0  0  0  0  0  0  0
    5.4641   -0.1550    0.0000 O   0  0  0  0  0  0  0  0  0  0  0  0
    7.1962   -0.1550    0.0000 O   0  0  0  0  0  0  0  0  0  0  0  0
    5.4641   -3.1550    0.0000 O   0  0  0  0  0  0  0  0  0  0  0  0
    8.9282   -0.1550    0.0000 O   0  0  0  0  0  0  0  0  0  0  0  0
    7.1962   -2.1550    0.0000 O   0  0  0  0  0  0  0  0  0  0  0  0
   10.6603    0.8450    0.0000 O   0  0  0  0  0  0  0  0  0  0  0  0
    3.7320   -2.1550    0.0000 O   0  0  0  0  0  0  0  0  0  0  0  0
    8.9282    3.8450    0.0000 O   0  0  0  0  0  0  0  0  0  0  0  0
   10.6603    2.8450    0.0000 O   0  0  0  0  0  0  0  0  0  0  0  0
    7.1962    5.8450    0.0000 O   0  0  0  0  0  0  0  0  0  0  0  0
    3.7320   -3.1550    0.0000 O   0  0  0  0  0  0  0  0  0  0  0  0
    7.1962    2.8450    0.0000 O   0  0  0  0  0  0  0  0  0  0  0  0
    5.4478    2.8104    0.0000 O   0  0  0  0  0  0  0  0  0  0  0  0
    6.3301   -6.6550    0.0000 O   0  0  0  0  0  0  0  0  0  0  0  0
    2.8660   -6.6550    0.0000 O   0  0  0  0  0  0  0  0  0  0  0  0
    4.5981   -7.6550    0.0000 O   0  0  0  0  0  0  0  0  0  0  0  0
    3.6660    5.8692    0.0000 O   0  0  0  0  0  0  0  0  0  0  0  0
   11.5263    5.3450    0.0000 O   0  0  0  0  0  0  0  0  0  0  0  0
   11.5263    7.3450    0.0000 O   0  0  0  0  0  0  0  0  0  0  0  0
    8.0622    1.3450    0.0000 C   0  0  1  0  0  0  0  0  0  0  0  0
    8.9282    0.8450    0.0000 C   0  0  1  0  0  0  0  0  0  0  0  0
    5.4641   -2.1550    0.0000 C   0  0  1  0  0  0  0  0  0  0  0  0
    6.3301   -1.6550    0.0000 C   0  0  2  0  0  0  0  0  0  0  0  0
    9.7942    1.3450    0.0000 C   0  0  1  0  0  0  0  0  0  0  0  0
    6.3301   -0.6550    0.0000 C   0  0  1  0  0  0  0  0  0  0  0  0
    4.5981   -1.6550    0.0000 C   0  0  2  0  0  0  0  0  0  0  0  0
    9.7942    2.3450    0.0000 C   0  0  2  0  0  0  0  0  0  0  0  0
    4.5981   -0.6550    0.0000 C   0  0  2  0  0  0  0  0  0  0  0  0
    7.1962    0.8450    0.0000 C   0  0  0  0  0  0  0  0  0  0  0  0
    8.9282    2.8450    0.0000 C   0  0  1  0  0  0  0  0  0  0  0  0
    3.7320   -0.1550    0.0000 C   0  0  0  0  0  0  0  0  0  0  0  0
    8.0622    4.3450    0.0000 C   0  0  0  0  0  0  0  0  0  0  0  0
    4.5981   -3.6550    0.0000 C   0  0  0  0  0  0  0  0  0  0  0  0
    8.0622    5.3450    0.0000 C   0  0  0  0  0  0  0  0  0  0  0  0
    7.1962    3.8450    0.0000 C   0  0  0  0  0  0  0  0  0  0  0  0
    4.5981   -4.6550    0.0000 C   0  0  0  0  0  0  0  0  0  0  0  0
    6.3301    4.3450    0.0000 C   0  0  0  0  0  0  0  0  0  0  0  0
    8.9282    5.8450    0.0000 C   0  0  0  0  0  0  0  0  0  0  0  0
    6.3301    5.3450    0.0000 C   0  0  0  0  0  0  0  0  0  0  0  0
    3.7320   -5.1550    0.0000 C   0  0  0  0  0  0  0  0  0  0  0  0
    5.4641   -5.1550    0.0000 C   0  0  0  0  0  0  0  0  0  0  0  0
    5.4362    3.8103    0.0000 C   0  0  0  0  0  0  0  0  0  0  0  0
    5.4362    5.8797    0.0000 C   0  0  0  0  0  0  0  0  0  0  0  0
    5.4641   -6.1550    0.0000 C   0  0  0  0  0  0  0  0  0  0  0  0
    3.7320   -6.1550    0.0000 C   0  0  0  0  0  0  0  0  0  0  0  0
    9.7942    5.3450    0.0000 C   0  0  0  0  0  0  0  0  0  0  0  0
    8.9282    6.8450    0.0000 C   0  0  0  0  0  0  0  0  0  0  0  0
    4.5981   -6.6550    0.0000 C   0  0  0  0  0  0  0  0  0  0  0  0
    4.5301    4.3242    0.0000 C   0  0  0  0  0  0  0  0  0  0  0  0
    4.5301    5.3658    0.0000 C   0  0  0  0  0  0  0  0  0  0  0  0
   10.6603    5.8450    0.0000 C   0  0  0  0  0  0  0  0  0  0  0  0
    9.7942    7.3450    0.0000 C   0  0  0  0  0  0  0  0  0  0  0  0
   10.6603    6.8450    0.0000 C   0  0  0  0  0  0  0  0  0  0  0  0
    7.1962   -6.1550    0.0000 C   0  0  0  0  0  0  0  0  0  0  0  0
    2.0000   -6.1550    0.0000 C   0  0  0  0  0  0  0  0  0  0  0  0
    7.5252    1.6550    0.0000 H   0  0  0  0  0  0  0  0  0  0  0  0
    9.4651    0.5350    0.0000 H   0  0  0  0  0  0  0  0  0  0  0  0
    4.9272   -2.4650    0.0000 H   0  0  0  0  0  0  0  0  0  0  0  0
    6.3301   -2.2750    0.0000 H   0  0  0  0  0  0  0  0  0  0  0  0
   10.3312    1.6550    0.0000 H   0  0  0  0  0  0  0  0  0  0  0  0
    6.3301   -0.0350    0.0000 H   0  0  0  0  0  0  0  0  0  0  0  0
    4.5981   -2.2750    0.0000 H   0  0  0  0  0  0  0  0  0  0  0  0
   10.3312    2.0350    0.0000 H   0  0  0  0  0  0  0  0  0  0  0  0
    4.5981   -0.0350    0.0000 H   0  0  0  0  0  0  0  0  0  0  0  0
    6.9841    1.4276    0.0000 H   0  0  0  0  0  0  0  0  0  0  0  0
    6.5856    0.7373    0.0000 H   0  0  0  0  0  0  0  0  0  0  0  0
    9.4651    3.1550    0.0000 H   0  0  0  0  0  0  0  0  0  0  0  0
    4.0420    0.3819    0.0000 H   0  0  0  0  0  0  0  0  0  0  0  0
    3.1951    0.1550    0.0000 H   0  0  0  0  0  0  0  0  0  0  0  0
    3.4220   -0.6919    0.0000 H   0  0  0  0  0  0  0  0  0  0  0  0
    8.3913   -0.4650    0.0000 H   0  0  0  0  0  0  0  0  0  0  0  0
    7.7331   -1.8450    0.0000 H   0  0  0  0  0  0  0  0  0  0  0  0
   10.6603    0.2250    0.0000 H   0  0  0  0  0  0  0  0  0  0  0  0
    3.1951   -1.8450    0.0000 H   0  0  0  0  0  0  0  0  0  0  0  0
   11.1972    2.5350    0.0000 H   0  0  0  0  0  0  0  0  0  0  0  0
    3.1951   -4.8450    0.0000 H   0  0  0  0  0  0  0  0  0  0  0  0
    6.0010   -4.8450    0.0000 H   0  0  0  0  0  0  0  0  0  0  0  0
    5.4434    6.4996    0.0000 H   0  0  0  0  0  0  0  0  0  0  0  0
    9.7942    4.7250    0.0000 H   0  0  0  0  0  0  0  0  0  0  0  0
    8.3913    7.1550    0.0000 H   0  0  0  0  0  0  0  0  0  0  0  0
    3.9944    4.0121    0.0000 H   0  0  0  0  0  0  0  0  0  0  0  0
    9.7942    7.9650    0.0000 H   0  0  0  0  0  0  0  0  0  0  0  0
    4.9144    2.4942    0.0000 H   0  0  0  0  0  0  0  0  0  0  0  0
    4.0611   -7.9650    0.0000 H   0  0  0  0  0  0  0  0  0  0  0  0
    3.1279    5.5612    0.0000 H   0  0  0  0  0  0  0  0  0  0  0  0
    7.5062   -6.6919    0.0000 H   0  0  0  0  0  0  0  0  0  0  0  0
    7.7331   -5.8450    0.0000 H   0  0  0  0  0  0  0  0  0  0  0  0
    6.8862   -5.6181    0.0000 H   0  0  0  0  0  0  0  0  0  0  0  0
    2.3100   -5.6181    0.0000 H   0  0  0  0  0  0  0  0  0  0  0  0
    1.4631   -5.8450    0.0000 H   0  0  0  0  0  0  0  0  0  0  0  0
    1.6900   -6.6919    0.0000 H   0  0  0  0  0  0  0  0  0  0  0  0
   11.5263    4.7250    0.0000 H   0  0  0  0  0  0  0  0  0  0  0  0
   11.5263    7.9650    0.0000 H   0  0  0  0  0  0  0  0  0  0  0  0
  1 21  1  0  0  0  0
  1 31  1  0  0  0  0
  2 26  1  0  0  0  0
  2 29  1  0  0  0  0
 26  3  1  1  0  0  0
  3 30  1  0  0  0  0
 23  4  1  6  0  0  0
  4 34  1  0  0  0  0
 22  5  1  1  0  0  0
  5 72  1  0  0  0  0
 24  6  1  6  0  0  0
  6 73  1  0  0  0  0
 25  7  1  1  0  0  0
  7 74  1  0  0  0  0
 27  8  1  1  0  0  0
  8 75  1  0  0  0  0
 31  9  1  1  0  0  0
  9 33  1  0  0  0  0
 28 10  1  6  0  0  0
 10 76  1  0  0  0  0
 11 35  1  0  0  0  0
 11 40  1  0  0  0  0
 12 34  2  0  0  0  0
 13 36  2  0  0  0  0
 14 43  1  0  0  0  0
 14 84  1  0  0  0  0
 15 45  1  0  0  0  0
 15 55  1  0  0  0  0
 16 46  1  0  0  0  0
 16 56  1  0  0  0  0
 17 49  1  0  0  0  0
 17 85  1  0  0  0  0
 18 51  1  0  0  0  0
 18 86  1  0  0  0  0
 19 52  1  0  0  0  0
 19 93  1  0  0  0  0
 20 54  1  0  0  0  0
 20 94  1  0  0  0  0
 21 22  1  0  0  0  0
 21 30  1  1  0  0  0
 21 57  1  0  0  0  0
 22 25  1  0  0  0  0
 22 58  1  0  0  0  0
 23 24  1  0  0  0  0
 23 27  1  0  0  0  0
 23 59  1  0  0  0  0
 24 26  1  0  0  0  0
 24 60  1  0  0  0  0
 25 28  1  0  0  0  0
 25 61  1  0  0  0  0
 26 62  1  0  0  0  0
 27 29  1  0  0  0  0
 27 63  1  0  0  0  0
 28 31  1  0  0  0  0
 28 64  1  0  0  0  0
 29 32  1  6  0  0  0
 29 65  1  0  0  0  0
 30 66  1  0  0  0  0
 30 67  1  0  0  0  0
 31 68  1  0  0  0  0
 32 69  1  0  0  0  0
 32 70  1  0  0  0  0
 32 71  1  0  0  0  0
 33 35  2  0  0  0  0
 33 36  1  0  0  0  0
 34 37  1  0  0  0  0
 35 39  1  0  0  0  0
 36 38  1  0  0  0  0
 37 41  2  0  0  0  0
 37 42  1  0  0  0  0
 38 40  1  0  0  0  0
 38 43  2  0  0  0  0
 39 47  2  0  0  0  0
 39 48  1  0  0  0  0
 40 44  2  0  0  0  0
 41 46  1  0  0  0  0
 41 77  1  0  0  0  0
 42 45  2  0  0  0  0
 42 78  1  0  0  0  0
 43 50  1  0  0  0  0
 44 51  1  0  0  0  0
 44 79  1  0  0  0  0
 45 49  1  0  0  0  0
 46 49  2  0  0  0  0
 47 52  1  0  0  0  0
 47 80  1  0  0  0  0
 48 53  2  0  0  0  0
 48 81  1  0  0  0  0
 50 51  2  0  0  0  0
 50 82  1  0  0  0  0
 52 54  2  0  0  0  0
 53 54  1  0  0  0  0
 53 83  1  0  0  0  0
 55 87  1  0  0  0  0
 55 88  1  0  0  0  0
 55 89  1  0  0  0  0
 56 90  1  0  0  0  0
 56 91  1  0  0  0  0
 56 92  1  0  0  0  0
M  END
> <PUBCHEM_COMPOUND_CID>
91885068

> <PUBCHEM_COMPOUND_CANONICALIZED>
1

> <PUBCHEM_CACTVS_COMPLEXITY>
1380

> <PUBCHEM_CACTVS_HBOND_ACCEPTOR>
20

> <PUBCHEM_CACTVS_HBOND_DONOR>
10

> <PUBCHEM_CACTVS_ROTATABLE_BOND>
11

> <PUBCHEM_CACTVS_SUBSKEYS>
AAADcfB8PgAAAAAAAAAAAAAAAAAAAAAAAAA0aMECAAAAAACBUAAAGgAACAAADBSwmAMyDoAABgCIAqDSCAICCAAkIAAIiAFGiMgdNzaGNR6ieWOl4BUPuYfK7LzOIAABCAAIQABAAAIQABCAAAAAAAAAAA==

> <PUBCHEM_IUPAC_OPENEYE_NAME>
[(2R,3R,4R,5S,6S)-2-[[(2R,3R,4S,5R,6S)-6-[2-(3,4-dihydroxyphenyl)-5,7-dihydroxy-4-oxo-chromen-3-yl]oxy-3,4,5-trihydroxy-tetrahydropyran-2-yl]methoxy]-3,5-dihydroxy-6-methyl-tetrahydropyran-4-yl] 4-hydroxy-3,5-dimethoxy-benzoate

> <PUBCHEM_IUPAC_CAS_NAME>
4-hydroxy-3,5-dimethoxybenzoic acid [(2R,3R,4R,5S,6S)-2-[[(2R,3R,4S,5R,6S)-6-[[2-(3,4-dihydroxyphenyl)-5,7-dihydroxy-4-oxo-1-benzopyran-3-yl]oxy]-3,4,5-trihydroxy-2-oxanyl]methoxy]-3,5-dihydroxy-6-methyl-4-oxanyl] ester

> <PUBCHEM_IUPAC_NAME_MARKUP>
[(2<I>R</I>,3<I>R</I>,4<I>R</I>,5<I>S</I>,6<I>S</I>)-2-[[(2<I>R</I>,3<I>R</I>,4<I>S</I>,5<I>R</I>,6<I>S</I>)-6-[2-(3,4-dihydroxyphenyl)-5,7-dihydroxy-4-oxochromen-3-yl]oxy-3,4,5-trihydroxyoxan-2-yl]methoxy]-3,5-dihydroxy-6-methyloxan-4-yl] 4-hydroxy-3,5-dimethoxybenzoate

> <PUBCHEM_IUPAC_NAME>
[(2R,3R,4R,5S,6S)-2-[[(2R,3R,4S,5R,6S)-6-[2-(3,4-dihydroxyphenyl)-5,7-dihydroxy-4-oxochromen-3-yl]oxy-3,4,5-trihydroxyoxan-2-yl]methoxy]-3,5-dihydroxy-6-methyloxan-4-yl] 4-hydroxy-3,5-dimethoxybenzoate

> <PUBCHEM_IUPAC_SYSTEMATIC_NAME>
[(2R,3R,4R,5S,6S)-2-[[(2R,3R,4S,5R,6S)-6-[2-[3,4-bis(oxidanyl)phenyl]-5,7-bis(oxidanyl)-4-oxidanylidene-chromen-3-yl]oxy-3,4,5-tris(oxidanyl)oxan-2-yl]methoxy]-6-methyl-3,5-bis(oxidanyl)oxan-4-yl] 3,5-dimethoxy-4-oxidanyl-benzoate

> <PUBCHEM_IUPAC_TRADITIONAL_NAME>
4-hydroxy-3,5-dimethoxy-benzoic acid [(2R,3R,4R,5S,6S)-2-[[(2R,3R,4S,5R,6S)-6-[2-(3,4-dihydroxyphenyl)-5,7-dihydroxy-4-keto-chromen-3-yl]oxy-3,4,5-trihydroxy-tetrahydropyran-2-yl]methoxy]-3,5-dihydroxy-6-methyl-tetrahydropyran-4-yl] ester

> <PUBCHEM_IUPAC_INCHI>
InChI=1S/C36H38O20/c1-12-24(41)32(55-34(48)14-7-20(49-2)25(42)21(8-14)50-3)30(47)35(52-12)51-11-22-26(43)28(45)29(46)36(54-22)56-33-27(44)23-18(40)9-15(37)10-19(23)53-31(33)13-4-5-16(38)17(39)6-13/h4-10,12,22,24,26,28-30,32,35-43,45-47H,11H2,1-3H3/t12-,22+,24-,26-,28-,29+,30+,32+,35+,36-/m0/s1

> <PUBCHEM_IUPAC_INCHIKEY>
LOMRWTBYEBGQIJ-HGKZGIPSSA-N

> <PUBCHEM_XLOGP3_AA>
0.5

> <PUBCHEM_EXACT_MASS>
790.195644

> <PUBCHEM_MOLECULAR_FORMULA>
C36H38O20

> <PUBCHEM_MOLECULAR_WEIGHT>
790.7

> <PUBCHEM_OPENEYE_CAN_SMILES>
CC1C(C(C(C(O1)OCC2C(C(C(C(O2)OC3=C(OC4=CC(=CC(=C4C3=O)O)O)C5=CC(=C(C=C5)O)O)O)O)O)O)OC(=O)C6=CC(=C(C(=C6)OC)O)OC)O

> <PUBCHEM_OPENEYE_ISO_SMILES>
C[C@H]1[C@@H]([C@H]([C@H]([C@@H](O1)OC[C@@H]2[C@@H]([C@@H]([C@H]([C@@H](O2)OC3=C(OC4=CC(=CC(=C4C3=O)O)O)C5=CC(=C(C=C5)O)O)O)O)O)O)OC(=O)C6=CC(=C(C(=C6)OC)O)OC)O

> <PUBCHEM_CACTVS_TPSA>
310

> <PUBCHEM_MONOISOTOPIC_WEIGHT>
790.195644

> <PUBCHEM_TOTAL_CHARGE>
0

> <PUBCHEM_HEAVY_ATOM_COUNT>
56

> <PUBCHEM_ATOM_DEF_STEREO_COUNT>
10

> <PUBCHEM_ATOM_UDEF_STEREO_COUNT>
0

> <PUBCHEM_BOND_DEF_STEREO_COUNT>
0

> <PUBCHEM_BOND_UDEF_STEREO_COUNT>
0

> <PUBCHEM_ISOTOPIC_ATOM_COUNT>
0

> <PUBCHEM_COMPONENT_COUNT>
1

> <PUBCHEM_CACTVS_TAUTO_COUNT>
-1

> <PUBCHEM_COORDINATE_TYPE>
1
5
255

> <PUBCHEM_BONDANNOTATIONS>
28  10  6
11  35  8
11  40  8
21  30  5
29  32  6
26  3  5
33  35  8
33  36  8
36  38  8
37  41  8
37  42  8
38  40  8
38  43  8
39  47  8
39  48  8
23  4  6
40  44  8
41  46  8
42  45  8
43  50  8
44  51  8
45  49  8
46  49  8
47  52  8
48  53  8
22  5  5
50  51  8
52  54  8
53  54  8
24  6  6
25  7  5
27  8  5
31  9  5

$$$$
