11651008
  -OEChem-08282010062D

144151  0     1  0  0  0  0  0999 V2000
   11.5166   -4.6827    0.0000 O   0  0  0  0  0  0  0  0  0  0  0  0
   13.6843   -1.7709    0.0000 O   0  0  0  0  0  0  0  0  0  0  0  0
    7.9843   -5.5199    0.0000 O   0  0  0  0  0  0  0  0  0  0  0  0
    7.3765    4.9150    0.0000 O   0  0  0  0  0  0  0  0  0  0  0  0
    4.3436    2.9202    0.0000 O   0  0  0  0  0  0  0  0  0  0  0  0
   10.9821    4.4936    0.0000 O   0  0  0  0  0  0  0  0  0  0  0  0
    3.3024   -0.5574    0.0000 O   0  0  0  0  0  0  0  0  0  0  0  0
   13.4732    1.8531    0.0000 O   0  0  0  0  0  0  0  0  0  0  0  0
    4.7403   -3.8907    0.0000 O   0  0  0  0  0  0  0  0  0  0  0  0
   16.0963    2.7845    0.0000 O   0  0  0  0  0  0  0  0  0  0  0  0
    2.5940   -5.6631    0.0000 O   0  0  0  0  0  0  0  0  0  0  0  0
   10.0734   -4.2960    0.0000 N   0  0  0  0  0  0  0  0  0  0  0  0
   12.3302   -2.4023    0.0000 N   0  0  0  0  0  0  0  0  0  0  0  0
    8.6004    4.0580    0.0000 N   0  0  0  0  0  0  0  0  0  0  0  0
    4.3589    0.4990    0.0000 N   0  0  0  0  0  0  0  0  0  0  0  0
    5.8320    3.0504    0.0000 N   0  0  0  0  0  0  0  0  0  0  0  0
   12.8418    0.4990    0.0000 N   0  0  0  0  0  0  0  0  0  0  0  0
    7.1273   -4.2960    0.0000 N   0  0  0  0  0  0  0  0  0  0  0  0
   11.3688    3.0504    0.0000 N   0  0  0  0  0  0  0  0  0  0  0  0
    4.8705   -2.4023    0.0000 N   0  0  0  0  0  0  0  0  0  0  0  0
   11.7331   -3.2044    0.0000 C   0  0  1  0  0  0  0  0  0  0  0  0
   12.3101   -4.0139    0.0000 C   0  0  0  0  0  0  0  0  0  0  0  0
    9.1004   -4.5266    0.0000 C   0  0  1  0  0  0  0  0  0  0  0  0
   13.2588   -3.7169    0.0000 C   0  0  0  0  0  0  0  0  0  0  0  0
   13.2712   -2.7229    0.0000 C   0  0  0  0  0  0  0  0  0  0  0  0
   10.9670   -3.8472    0.0000 C   0  0  0  0  0  0  0  0  0  0  0  0
    9.0221   -5.5176    0.0000 C   0  0  0  0  0  0  0  0  0  0  0  0
   10.5881   -5.1464    0.0000 C   0  0  0  0  0  0  0  0  0  0  0  0
    9.9397   -5.8999    0.0000 C   0  0  0  0  0  0  0  0  0  0  0  0
    9.5936    3.9419    0.0000 C   0  0  1  0  0  0  0  0  0  0  0  0
    4.6457    1.4570    0.0000 C   0  0  1  0  0  0  0  0  0  0  0  0
   12.7263   -1.4841    0.0000 C   0  0  0  0  0  0  0  0  0  0  0  0
   10.0061    4.8464    0.0000 C   0  0  0  0  0  0  0  0  0  0  0  0
    8.4075    5.0332    0.0000 C   0  0  0  0  0  0  0  0  0  0  0  0
    9.2746    5.5195    0.0000 C   0  0  0  0  0  0  0  0  0  0  0  0
    3.8266    2.0203    0.0000 C   0  0  0  0  0  0  0  0  0  0  0  0
   12.9000   -0.4993    0.0000 C   0  0  2  0  0  0  0  0  0  0  0  0
    8.1004   -4.5266    0.0000 C   0  0  0  0  0  0  0  0  0  0  0  0
    6.6674    3.5999    0.0000 C   0  0  2  0  0  0  0  0  0  0  0  0
    3.0367    1.4168    0.0000 C   0  0  0  0  0  0  0  0  0  0  0  0
    3.3650    0.4785    0.0000 C   0  0  0  0  0  0  0  0  0  0  0  0
    7.6071    3.9419    0.0000 C   0  0  0  0  0  0  0  0  0  0  0  0
    6.2186    4.4936    0.0000 C   0  0  0  0  0  0  0  0  0  0  0  0
    5.1457    2.3230    0.0000 C   0  0  0  0  0  0  0  0  0  0  0  0
   10.5333    3.5999    0.0000 C   0  0  0  0  0  0  0  0  0  0  0  0
   13.8983   -0.5574    0.0000 C   0  0  0  0  0  0  0  0  0  0  0  0
    4.3008   -0.4993    0.0000 C   0  0  0  0  0  0  0  0  0  0  0  0
    5.2203    4.5517    0.0000 C   0  0  0  0  0  0  0  0  0  0  0  0
    4.4744   -1.4841    0.0000 C   0  0  2  0  0  0  0  0  0  0  0  0
   12.0550    2.3230    0.0000 C   0  0  2  0  0  0  0  0  0  0  0  0
   12.5550    1.4570    0.0000 C   0  0  0  0  0  0  0  0  0  0  0  0
    6.2337   -3.8472    0.0000 C   0  0  0  0  0  0  0  0  0  0  0  0
    3.5164   -1.7709    0.0000 C   0  0  0  0  0  0  0  0  0  0  0  0
   12.8572    2.9202    0.0000 C   0  0  0  0  0  0  0  0  0  0  0  0
   14.4478    0.2781    0.0000 C   0  0  0  0  0  0  0  0  0  0  0  0
    4.7715    5.4453    0.0000 C   0  0  0  0  0  0  0  0  0  0  0  0
    4.6708    3.7162    0.0000 C   0  0  0  0  0  0  0  0  0  0  0  0
    5.4676   -3.2044    0.0000 C   0  0  0  0  0  0  0  0  0  0  0  0
    3.2858   -2.7439    0.0000 C   0  0  0  0  0  0  0  0  0  0  0  0
   12.7411    3.9134    0.0000 C   0  0  0  0  0  0  0  0  0  0  0  0
   13.9990    1.1717    0.0000 C   0  0  0  0  0  0  0  0  0  0  0  0
   15.4461    0.2199    0.0000 C   0  0  0  0  0  0  0  0  0  0  0  0
    4.0132   -3.4302    0.0000 C   0  0  0  0  0  0  0  0  0  0  0  0
    2.3278   -3.0307    0.0000 C   0  0  0  0  0  0  0  0  0  0  0  0
   14.5485    2.0072    0.0000 C   0  0  0  0  0  0  0  0  0  0  0  0
   15.9956    1.0554    0.0000 C   0  0  0  0  0  0  0  0  0  0  0  0
   13.5432    4.5106    0.0000 C   0  0  0  0  0  0  0  0  0  0  0  0
   11.8228    4.3095    0.0000 C   0  0  0  0  0  0  0  0  0  0  0  0
   15.5468    1.9490    0.0000 C   0  0  0  0  0  0  0  0  0  0  0  0
    3.7826   -4.4032    0.0000 C   0  0  0  0  0  0  0  0  0  0  0  0
    2.0972   -4.0038    0.0000 C   0  0  0  0  0  0  0  0  0  0  0  0
   13.4271    5.5038    0.0000 C   0  0  0  0  0  0  0  0  0  0  0  0
   11.7067    5.3028    0.0000 C   0  0  0  0  0  0  0  0  0  0  0  0
    2.8246   -4.6900    0.0000 C   0  0  0  0  0  0  0  0  0  0  0  0
   12.5089    5.8999    0.0000 C   0  0  0  0  0  0  0  0  0  0  0  0
   11.1148   -2.6211    0.0000 H   0  0  0  0  0  0  0  0  0  0  0  0
   11.7702   -4.3187    0.0000 H   0  0  0  0  0  0  0  0  0  0  0  0
   12.5565   -4.5828    0.0000 H   0  0  0  0  0  0  0  0  0  0  0  0
    9.0017   -3.6824    0.0000 H   0  0  0  0  0  0  0  0  0  0  0  0
   13.3808   -4.3248    0.0000 H   0  0  0  0  0  0  0  0  0  0  0  0
   13.8761   -3.6595    0.0000 H   0  0  0  0  0  0  0  0  0  0  0  0
   13.8869   -2.7958    0.0000 H   0  0  0  0  0  0  0  0  0  0  0  0
   13.4084   -2.1183    0.0000 H   0  0  0  0  0  0  0  0  0  0  0  0
    8.4126   -5.4041    0.0000 H   0  0  0  0  0  0  0  0  0  0  0  0
    8.8451   -6.1118    0.0000 H   0  0  0  0  0  0  0  0  0  0  0  0
   11.0130   -5.5980    0.0000 H   0  0  0  0  0  0  0  0  0  0  0  0
   11.0819   -4.7714    0.0000 H   0  0  0  0  0  0  0  0  0  0  0  0
    9.6424   -6.4440    0.0000 H   0  0  0  0  0  0  0  0  0  0  0  0
   10.4495   -6.2527    0.0000 H   0  0  0  0  0  0  0  0  0  0  0  0
    9.3976    3.1149    0.0000 H   0  0  0  0  0  0  0  0  0  0  0  0
    5.4262    1.1204    0.0000 H   0  0  0  0  0  0  0  0  0  0  0  0
   10.5401    4.5312    0.0000 H   0  0  0  0  0  0  0  0  0  0  0  0
   10.3756    5.3442    0.0000 H   0  0  0  0  0  0  0  0  0  0  0  0
    8.1628    5.6029    0.0000 H   0  0  0  0  0  0  0  0  0  0  0  0
    7.8153    4.8497    0.0000 H   0  0  0  0  0  0  0  0  0  0  0  0
    9.7400    5.9291    0.0000 H   0  0  0  0  0  0  0  0  0  0  0  0
    8.9162    6.0254    0.0000 H   0  0  0  0  0  0  0  0  0  0  0  0
    4.2297    2.4914    0.0000 H   0  0  0  0  0  0  0  0  0  0  0  0
    3.4005    2.4707    0.0000 H   0  0  0  0  0  0  0  0  0  0  0  0
   13.3384   -0.0609    0.0000 H   0  0  0  0  0  0  0  0  0  0  0  0
    6.0686    3.7604    0.0000 H   0  0  0  0  0  0  0  0  0  0  0  0
    2.7142    1.9463    0.0000 H   0  0  0  0  0  0  0  0  0  0  0  0
    2.4763    1.1517    0.0000 H   0  0  0  0  0  0  0  0  0  0  0  0
    2.7615    0.3364    0.0000 H   0  0  0  0  0  0  0  0  0  0  0  0
    3.4429   -0.1366    0.0000 H   0  0  0  0  0  0  0  0  0  0  0  0
    6.8126    4.6714    0.0000 H   0  0  0  0  0  0  0  0  0  0  0  0
    6.1467    5.1094    0.0000 H   0  0  0  0  0  0  0  0  0  0  0  0
    5.4334    3.5254    0.0000 H   0  0  0  0  0  0  0  0  0  0  0  0
   13.7553   -1.1607    0.0000 H   0  0  0  0  0  0  0  0  0  0  0  0
   14.4676   -0.8030    0.0000 H   0  0  0  0  0  0  0  0  0  0  0  0
    5.4986    3.9976    0.0000 H   0  0  0  0  0  0  0  0  0  0  0  0
   13.4524    0.6067    0.0000 H   0  0  0  0  0  0  0  0  0  0  0  0
    4.2124   -2.0460    0.0000 H   0  0  0  0  0  0  0  0  0  0  0  0
   12.1091    2.9407    0.0000 H   0  0  0  0  0  0  0  0  0  0  0  0
    6.9153   -4.8786    0.0000 H   0  0  0  0  0  0  0  0  0  0  0  0
   11.7673    3.5254    0.0000 H   0  0  0  0  0  0  0  0  0  0  0  0
    5.6693   -4.1038    0.0000 H   0  0  0  0  0  0  0  0  0  0  0  0
    6.5744   -3.3292    0.0000 H   0  0  0  0  0  0  0  0  0  0  0  0
    3.4444   -1.1551    0.0000 H   0  0  0  0  0  0  0  0  0  0  0  0
    2.8975   -1.7348    0.0000 H   0  0  0  0  0  0  0  0  0  0  0  0
   13.1354    2.3662    0.0000 H   0  0  0  0  0  0  0  0  0  0  0  0
   13.4511    3.0980    0.0000 H   0  0  0  0  0  0  0  0  0  0  0  0
    4.3336   -2.7123    0.0000 H   0  0  0  0  0  0  0  0  0  0  0  0
    5.3256    5.7236    0.0000 H   0  0  0  0  0  0  0  0  0  0  0  0
    4.4933    5.9994    0.0000 H   0  0  0  0  0  0  0  0  0  0  0  0
    4.2175    5.1671    0.0000 H   0  0  0  0  0  0  0  0  0  0  0  0
    4.1528    4.0569    0.0000 H   0  0  0  0  0  0  0  0  0  0  0  0
    4.3301    3.1982    0.0000 H   0  0  0  0  0  0  0  0  0  0  0  0
    5.1888    3.3755    0.0000 H   0  0  0  0  0  0  0  0  0  0  0  0
   13.3800    1.2077    0.0000 H   0  0  0  0  0  0  0  0  0  0  0  0
   15.7244   -0.3341    0.0000 H   0  0  0  0  0  0  0  0  0  0  0  0
    4.6071   -3.2524    0.0000 H   0  0  0  0  0  0  0  0  0  0  0  0
    1.8768   -2.6053    0.0000 H   0  0  0  0  0  0  0  0  0  0  0  0
   14.2702    2.5612    0.0000 H   0  0  0  0  0  0  0  0  0  0  0  0
   16.6146    1.0194    0.0000 H   0  0  0  0  0  0  0  0  0  0  0  0
   14.1125    4.2650    0.0000 H   0  0  0  0  0  0  0  0  0  0  0  0
   11.3255    3.9393    0.0000 H   0  0  0  0  0  0  0  0  0  0  0  0
    4.2335   -4.8287    0.0000 H   0  0  0  0  0  0  0  0  0  0  0  0
    1.5032   -4.1816    0.0000 H   0  0  0  0  0  0  0  0  0  0  0  0
   13.9244    5.8741    0.0000 H   0  0  0  0  0  0  0  0  0  0  0  0
   11.1375    5.5483    0.0000 H   0  0  0  0  0  0  0  0  0  0  0  0
   12.4369    6.5157    0.0000 H   0  0  0  0  0  0  0  0  0  0  0  0
   16.7153    2.7485    0.0000 H   0  0  0  0  0  0  0  0  0  0  0  0
    2.0000   -5.8409    0.0000 H   0  0  0  0  0  0  0  0  0  0  0  0
  1 26  2  0  0  0  0
  2 32  2  0  0  0  0
  3 38  2  0  0  0  0
  4 42  2  0  0  0  0
  5 44  2  0  0  0  0
  6 45  2  0  0  0  0
  7 47  2  0  0  0  0
  8 51  2  0  0  0  0
  9 58  2  0  0  0  0
 10 69  1  0  0  0  0
 10143  1  0  0  0  0
 11 74  1  0  0  0  0
 11144  1  0  0  0  0
 12 23  1  0  0  0  0
 12 26  1  0  0  0  0
 12 28  1  0  0  0  0
 13 21  1  0  0  0  0
 13 25  1  0  0  0  0
 13 32  1  0  0  0  0
 14 30  1  0  0  0  0
 14 34  1  0  0  0  0
 14 42  1  0  0  0  0
 15 31  1  0  0  0  0
 15 41  1  0  0  0  0
 15 47  1  0  0  0  0
 16 39  1  0  0  0  0
 16 44  1  0  0  0  0
 16108  1  0  0  0  0
 17 37  1  0  0  0  0
 17 51  1  0  0  0  0
 17112  1  0  0  0  0
 18 38  1  0  0  0  0
 18 52  1  0  0  0  0
 18115  1  0  0  0  0
 19 45  1  0  0  0  0
 19 50  1  0  0  0  0
 19116  1  0  0  0  0
 20 49  1  0  0  0  0
 20 58  1  0  0  0  0
 20123  1  0  0  0  0
 21 22  1  0  0  0  0
 21 26  1  0  0  0  0
 21 76  1  6  0  0  0
 22 24  1  0  0  0  0
 22 77  1  0  0  0  0
 22 78  1  0  0  0  0
 23 27  1  0  0  0  0
 23 38  1  0  0  0  0
 23 79  1  6  0  0  0
 24 25  1  0  0  0  0
 24 80  1  0  0  0  0
 24 81  1  0  0  0  0
 25 82  1  0  0  0  0
 25 83  1  0  0  0  0
 27 29  1  0  0  0  0
 27 84  1  0  0  0  0
 27 85  1  0  0  0  0
 28 29  1  0  0  0  0
 28 86  1  0  0  0  0
 28 87  1  0  0  0  0
 29 88  1  0  0  0  0
 29 89  1  0  0  0  0
 30 33  1  0  0  0  0
 30 45  1  0  0  0  0
 30 90  1  6  0  0  0
 31 36  1  0  0  0  0
 31 44  1  0  0  0  0
 31 91  1  6  0  0  0
 32 37  1  0  0  0  0
 33 35  1  0  0  0  0
 33 92  1  0  0  0  0
 33 93  1  0  0  0  0
 34 35  1  0  0  0  0
 34 94  1  0  0  0  0
 34 95  1  0  0  0  0
 35 96  1  0  0  0  0
 35 97  1  0  0  0  0
 36 40  1  0  0  0  0
 36 98  1  0  0  0  0
 36 99  1  0  0  0  0
 37 46  1  1  0  0  0
 37100  1  0  0  0  0
 39 42  1  0  0  0  0
 39 43  1  1  0  0  0
 39101  1  0  0  0  0
 40 41  1  0  0  0  0
 40102  1  0  0  0  0
 40103  1  0  0  0  0
 41104  1  0  0  0  0
 41105  1  0  0  0  0
 43 48  1  0  0  0  0
 43106  1  0  0  0  0
 43107  1  0  0  0  0
 46 55  1  0  0  0  0
 46109  1  0  0  0  0
 46110  1  0  0  0  0
 47 49  1  0  0  0  0
 48 56  1  0  0  0  0
 48 57  1  0  0  0  0
 48111  1  0  0  0  0
 49 53  1  1  0  0  0
 49113  1  0  0  0  0
 50 51  1  0  0  0  0
 50 54  1  1  0  0  0
 50114  1  0  0  0  0
 52 58  1  0  0  0  0
 52117  1  0  0  0  0
 52118  1  0  0  0  0
 53 59  1  0  0  0  0
 53119  1  0  0  0  0
 53120  1  0  0  0  0
 54 60  1  0  0  0  0
 54121  1  0  0  0  0
 54122  1  0  0  0  0
 55 61  2  0  0  0  0
 55 62  1  0  0  0  0
 56124  1  0  0  0  0
 56125  1  0  0  0  0
 56126  1  0  0  0  0
 57127  1  0  0  0  0
 57128  1  0  0  0  0
 57129  1  0  0  0  0
 59 63  2  0  0  0  0
 59 64  1  0  0  0  0
 60 67  2  0  0  0  0
 60 68  1  0  0  0  0
 61 65  1  0  0  0  0
 61130  1  0  0  0  0
 62 66  2  0  0  0  0
 62131  1  0  0  0  0
 63 70  1  0  0  0  0
 63132  1  0  0  0  0
 64 71  2  0  0  0  0
 64133  1  0  0  0  0
 65 69  2  0  0  0  0
 65134  1  0  0  0  0
 66 69  1  0  0  0  0
 66135  1  0  0  0  0
 67 72  1  0  0  0  0
 67136  1  0  0  0  0
 68 73  2  0  0  0  0
 68137  1  0  0  0  0
 70 74  2  0  0  0  0
 70138  1  0  0  0  0
 71 74  1  0  0  0  0
 71139  1  0  0  0  0
 72 75  2  0  0  0  0
 72140  1  0  0  0  0
 73 75  1  0  0  0  0
 73141  1  0  0  0  0
 75142  1  0  0  0  0
M  END
> <PUBCHEM_COMPOUND_CID>
11651008

> <PUBCHEM_COMPOUND_CANONICALIZED>
1

> <PUBCHEM_CACTVS_COMPLEXITY>
2070

> <PUBCHEM_CACTVS_HBOND_ACCEPTOR>
11

> <PUBCHEM_CACTVS_HBOND_DONOR>
7

> <PUBCHEM_CACTVS_ROTATABLE_BOND>
8

> <PUBCHEM_CACTVS_SUBSKEYS>
AAADcfB//AAAAAAAAAAAAAAAAAAAAWLFiwAwYMAAAAAAAAABUAAAHgAQCAAADSzBmAQyBoPAAgCIAiFSEAACAAAgIAAIiIGOCIgIZjKCkTOUcAAk1hGImAeYyaCOIAAAAAAAAABAAAAAAAAAAAAAAAAAAA==

> <PUBCHEM_IUPAC_OPENEYE_NAME>
(3S,9S,12S,15S,21S,24S,30S,36S)-12-benzyl-9,30-bis[(4-hydroxyphenyl)methyl]-21-isobutyl-1,7,10,13,19,22,28,31,34-nonazapentacyclo[34.3.0.03,7.015,19.024,28]nonatriacontane-2,8,11,14,20,23,29,32,35-nonone

> <PUBCHEM_IUPAC_CAS_NAME>
(3S,9S,12S,15S,21S,24S,30S,36S)-9,30-bis[(4-hydroxyphenyl)methyl]-21-(2-methylpropyl)-12-(phenylmethyl)-1,7,10,13,19,22,28,31,34-nonazapentacyclo[34.3.0.03,7.015,19.024,28]nonatriacontane-2,8,11,14,20,23,29,32,35-nonone

> <PUBCHEM_IUPAC_NAME_MARKUP>
(3<I>S</I>,9<I>S</I>,12<I>S</I>,15<I>S</I>,21<I>S</I>,24<I>S</I>,30<I>S</I>,36<I>S</I>)-12-benzyl-9,30-bis[(4-hydroxyphenyl)methyl]-21-(2-methylpropyl)-1,7,10,13,19,22,28,31,34-nonazapentacyclo[34.3.0.0<SUP>3,7</SUP>.0<SUP>15,19</SUP>.0<SUP>24,28</SUP>]nonatriacontane-2,8,11,14,20,23,29,32,35-nonone

> <PUBCHEM_IUPAC_NAME>
(3S,9S,12S,15S,21S,24S,30S,36S)-12-benzyl-9,30-bis[(4-hydroxyphenyl)methyl]-21-(2-methylpropyl)-1,7,10,13,19,22,28,31,34-nonazapentacyclo[34.3.0.03,7.015,19.024,28]nonatriacontane-2,8,11,14,20,23,29,32,35-nonone

> <PUBCHEM_IUPAC_SYSTEMATIC_NAME>
(3S,9S,12S,15S,21S,24S,30S,36S)-9,30-bis[(4-hydroxyphenyl)methyl]-21-(2-methylpropyl)-12-(phenylmethyl)-1,7,10,13,19,22,28,31,34-nonazapentacyclo[34.3.0.03,7.015,19.024,28]nonatriacontane-2,8,11,14,20,23,29,32,35-nonone

> <PUBCHEM_IUPAC_TRADITIONAL_NAME>
(3S,9S,12S,15S,21S,24S,30S,36S)-12-benzyl-9,30-bis(4-hydroxybenzyl)-21-isobutyl-1,7,10,13,19,22,28,31,34-nonazapentacyclo[34.3.0.03,7.015,19.024,28]nonatriacontane-2,8,11,14,20,23,29,32,35-nonone

> <PUBCHEM_IUPAC_INCHI>
InChI=1S/C55H69N9O11/c1-33(2)28-40-52(72)61-24-7-13-44(61)50(70)58-39(29-34-10-4-3-5-11-34)48(68)59-42(31-36-18-22-38(66)23-19-36)54(74)64-27-9-15-46(64)55(75)63-26-6-12-43(63)49(69)56-32-47(67)57-41(30-35-16-20-37(65)21-17-35)53(73)62-25-8-14-45(62)51(71)60-40/h3-5,10-11,16-23,33,39-46,65-66H,6-9,12-15,24-32H2,1-2H3,(H,56,69)(H,57,67)(H,58,70)(H,59,68)(H,60,71)/t39-,40-,41-,42-,43-,44-,45-,46-/m0/s1

> <PUBCHEM_IUPAC_INCHIKEY>
KUJSGRJPNYKNOJ-QVWIHFFISA-N

> <PUBCHEM_XLOGP3_AA>
3.9

> <PUBCHEM_EXACT_MASS>
1031.511654

> <PUBCHEM_MOLECULAR_FORMULA>
C55H69N9O11

> <PUBCHEM_MOLECULAR_WEIGHT>
1032.2

> <PUBCHEM_OPENEYE_CAN_SMILES>
CC(C)CC1C(=O)N2CCCC2C(=O)NC(C(=O)NC(C(=O)N3CCCC3C(=O)N4CCCC4C(=O)NCC(=O)NC(C(=O)N5CCCC5C(=O)N1)CC6=CC=C(C=C6)O)CC7=CC=C(C=C7)O)CC8=CC=CC=C8

> <PUBCHEM_OPENEYE_ISO_SMILES>
CC(C)C[C@H]1C(=O)N2CCC[C@H]2C(=O)N[C@H](C(=O)N[C@H](C(=O)N3CCC[C@H]3C(=O)N4CCC[C@H]4C(=O)NCC(=O)N[C@H](C(=O)N5CCC[C@H]5C(=O)N1)CC6=CC=C(C=C6)O)CC7=CC=C(C=C7)O)CC8=CC=CC=C8

> <PUBCHEM_CACTVS_TPSA>
267

> <PUBCHEM_MONOISOTOPIC_WEIGHT>
1031.511654

> <PUBCHEM_TOTAL_CHARGE>
0

> <PUBCHEM_HEAVY_ATOM_COUNT>
75

> <PUBCHEM_ATOM_DEF_STEREO_COUNT>
8

> <PUBCHEM_ATOM_UDEF_STEREO_COUNT>
0

> <PUBCHEM_BOND_DEF_STEREO_COUNT>
0

> <PUBCHEM_BOND_UDEF_STEREO_COUNT>
0

> <PUBCHEM_ISOTOPIC_ATOM_COUNT>
0

> <PUBCHEM_COMPONENT_COUNT>
1

> <PUBCHEM_CACTVS_TAUTO_COUNT>
-1

> <PUBCHEM_COORDINATE_TYPE>
1
5
255

> <PUBCHEM_BONDANNOTATIONS>
21  76  6
23  79  6
30  90  6
31  91  6
37  46  5
39  43  5
49  53  5
50  54  5
55  61  8
55  62  8
59  63  8
59  64  8
60  67  8
60  68  8
61  65  8
62  66  8
63  70  8
64  71  8
65  69  8
66  69  8
67  72  8
68  73  8
70  74  8
71  74  8
72  75  8
73  75  8

$$$$
