44423599
  -OEChem-11202012393D

 76 80  0     1  0  0  0  0  0999 V2000
    7.1195    0.6062    2.3483 O   0  0  0  0  0  0  0  0  0  0  0  0
    2.6508    0.2674   -1.0116 C   0  0  1  0  0  0  0  0  0  0  0  0
    3.9879    0.3762   -0.2545 C   0  0  2  0  0  0  0  0  0  0  0  0
    3.9722    0.3584   -1.7609 C   0  0  0  0  0  0  0  0  0  0  0  0
    1.9017   -1.0955   -0.9726 C   0  0  2  0  0  0  0  0  0  0  0  0
    0.5806   -0.9299   -0.1506 C   0  0  1  0  0  0  0  0  0  0  0  0
    4.5031   -0.8563    0.4851 C   0  0  1  0  0  0  0  0  0  0  0  0
   -0.3274    0.1688   -0.8084 C   0  0  2  0  0  0  0  0  0  0  0  0
    1.7617    1.4886   -1.3350 C   0  0  0  0  0  0  0  0  0  0  0  0
    2.7042   -2.3353   -0.5066 C   0  0  0  0  0  0  0  0  0  0  0  0
    4.3419    1.6701    0.4616 C   0  0  0  0  0  0  0  0  0  0  0  0
    0.3812    1.5186   -0.6665 C   0  0  0  0  0  0  0  0  0  0  0  0
    4.1901   -2.1592   -0.2479 C   0  0  0  0  0  0  0  0  0  0  0  0
   -1.6387    0.0093    0.0031 C   0  0  2  0  0  0  0  0  0  0  0  0
   -0.3840   -2.1308   -0.1407 C   0  0  0  0  0  0  0  0  0  0  0  0
    6.0164   -0.7612    0.7148 C   0  0  0  0  0  0  0  0  0  0  0  0
   -1.7714   -1.5248    0.1676 C   0  0  0  0  0  0  0  0  0  0  0  0
    0.9482   -0.6284    1.3453 C   0  0  0  0  0  0  0  0  0  0  0  0
    5.8414    1.7917    0.7020 C   0  0  0  0  0  0  0  0  0  0  0  0
   -0.6406   -0.0676   -2.3193 C   0  0  0  0  0  0  0  0  0  0  0  0
   -2.8983    0.6472   -0.5725 C   0  0  1  0  0  0  0  0  0  0  0  0
    6.3686    0.5497    1.3766 C   0  0  0  0  0  0  0  0  0  0  0  0
   -4.1072    0.3445    0.3370 C   0  0  0  0  0  0  0  0  0  0  0  0
   -2.6818    2.1511   -0.7632 C   0  0  0  0  0  0  0  0  0  0  0  0
   -5.4272    0.9273   -0.1845 C   0  0  0  0  0  0  0  0  0  0  0  0
   -6.5990    0.5911    0.7192 C   0  0  0  0  0  0  0  0  0  0  0  0
   -7.3992   -0.6570    0.3623 C   0  0  0  0  0  0  0  0  0  0  0  0
   -6.8858    1.3920    1.7599 C   0  0  0  0  0  0  0  0  0  0  0  0
   -8.4983   -0.3206   -0.6502 C   0  0  0  0  0  0  0  0  0  0  0  0
   -8.0108   -1.3918    1.5621 C   0  0  0  0  0  0  0  0  0  0  0  0
    1.6445   -1.3202   -2.0139 H   0  0  0  0  0  0  0  0  0  0  0  0
    4.2212    1.2828   -2.2750 H   0  0  0  0  0  0  0  0  0  0  0  0
    4.3033   -0.5034   -2.3241 H   0  0  0  0  0  0  0  0  0  0  0  0
    4.0082   -0.8805    1.4657 H   0  0  0  0  0  0  0  0  0  0  0  0
    1.6263    1.5163   -2.4242 H   0  0  0  0  0  0  0  0  0  0  0  0
    2.2650    2.4292   -1.0964 H   0  0  0  0  0  0  0  0  0  0  0  0
    2.5816   -3.1254   -1.2607 H   0  0  0  0  0  0  0  0  0  0  0  0
    2.2658   -2.7764    0.3939 H   0  0  0  0  0  0  0  0  0  0  0  0
    3.8092    1.6927    1.4204 H   0  0  0  0  0  0  0  0  0  0  0  0
    4.0307    2.5551   -0.0994 H   0  0  0  0  0  0  0  0  0  0  0  0
    0.4889    1.7990    0.3870 H   0  0  0  0  0  0  0  0  0  0  0  0
   -0.1620    2.3414   -1.1308 H   0  0  0  0  0  0  0  0  0  0  0  0
    4.5453   -3.0111    0.3468 H   0  0  0  0  0  0  0  0  0  0  0  0
    4.7384   -2.2233   -1.1947 H   0  0  0  0  0  0  0  0  0  0  0  0
   -1.4948    0.4467    0.9998 H   0  0  0  0  0  0  0  0  0  0  0  0
   -0.1188   -2.8933    0.5996 H   0  0  0  0  0  0  0  0  0  0  0  0
   -0.4024   -2.6299   -1.1166 H   0  0  0  0  0  0  0  0  0  0  0  0
    6.5699   -0.8136   -0.2300 H   0  0  0  0  0  0  0  0  0  0  0  0
    6.3566   -1.5830    1.3547 H   0  0  0  0  0  0  0  0  0  0  0  0
   -2.5099   -1.9604   -0.5149 H   0  0  0  0  0  0  0  0  0  0  0  0
   -2.0792   -1.7719    1.1901 H   0  0  0  0  0  0  0  0  0  0  0  0
    1.5901    0.2494    1.4531 H   0  0  0  0  0  0  0  0  0  0  0  0
    1.4820   -1.4651    1.8062 H   0  0  0  0  0  0  0  0  0  0  0  0
    0.0736   -0.4648    1.9803 H   0  0  0  0  0  0  0  0  0  0  0  0
    6.0509    2.6623    1.3320 H   0  0  0  0  0  0  0  0  0  0  0  0
    6.3812    1.9147   -0.2434 H   0  0  0  0  0  0  0  0  0  0  0  0
    0.2553   -0.1433   -2.9395 H   0  0  0  0  0  0  0  0  0  0  0  0
   -1.2176    0.7538   -2.7525 H   0  0  0  0  0  0  0  0  0  0  0  0
   -1.2128   -0.9853   -2.4887 H   0  0  0  0  0  0  0  0  0  0  0  0
   -3.1342    0.2134   -1.5521 H   0  0  0  0  0  0  0  0  0  0  0  0
   -3.9098    0.7391    1.3428 H   0  0  0  0  0  0  0  0  0  0  0  0
   -4.2360   -0.7383    0.4483 H   0  0  0  0  0  0  0  0  0  0  0  0
   -2.2313    2.6132    0.1214 H   0  0  0  0  0  0  0  0  0  0  0  0
   -3.6129    2.6856   -0.9618 H   0  0  0  0  0  0  0  0  0  0  0  0
   -2.0747    2.3687   -1.6420 H   0  0  0  0  0  0  0  0  0  0  0  0
   -5.6230    0.5678   -1.2018 H   0  0  0  0  0  0  0  0  0  0  0  0
   -5.3727    2.0180   -0.2576 H   0  0  0  0  0  0  0  0  0  0  0  0
   -6.7087   -1.3692   -0.1094 H   0  0  0  0  0  0  0  0  0  0  0  0
   -7.7223    1.2006    2.4218 H   0  0  0  0  0  0  0  0  0  0  0  0
   -6.2867    2.2720    1.9717 H   0  0  0  0  0  0  0  0  0  0  0  0
   -9.0304   -1.2268   -0.9595 H   0  0  0  0  0  0  0  0  0  0  0  0
   -8.0802    0.1409   -1.5514 H   0  0  0  0  0  0  0  0  0  0  0  0
   -9.2332    0.3735   -0.2271 H   0  0  0  0  0  0  0  0  0  0  0  0
   -8.4407   -2.3482    1.2439 H   0  0  0  0  0  0  0  0  0  0  0  0
   -8.8132   -0.8136    2.0327 H   0  0  0  0  0  0  0  0  0  0  0  0
   -7.2500   -1.6069    2.3203 H   0  0  0  0  0  0  0  0  0  0  0  0
  1 22  2  0  0  0  0
  2  3  1  0  0  0  0
  2  4  1  0  0  0  0
  2  5  1  0  0  0  0
  2  9  1  0  0  0  0
  3  4  1  0  0  0  0
  3  7  1  0  0  0  0
  3 11  1  0  0  0  0
  4 32  1  0  0  0  0
  4 33  1  0  0  0  0
  5  6  1  0  0  0  0
  5 10  1  0  0  0  0
  5 31  1  0  0  0  0
  6  8  1  0  0  0  0
  6 15  1  0  0  0  0
  6 18  1  0  0  0  0
  7 13  1  0  0  0  0
  7 16  1  0  0  0  0
  7 34  1  0  0  0  0
  8 12  1  0  0  0  0
  8 14  1  0  0  0  0
  8 20  1  0  0  0  0
  9 12  1  0  0  0  0
  9 35  1  0  0  0  0
  9 36  1  0  0  0  0
 10 13  1  0  0  0  0
 10 37  1  0  0  0  0
 10 38  1  0  0  0  0
 11 19  1  0  0  0  0
 11 39  1  0  0  0  0
 11 40  1  0  0  0  0
 12 41  1  0  0  0  0
 12 42  1  0  0  0  0
 13 43  1  0  0  0  0
 13 44  1  0  0  0  0
 14 17  1  0  0  0  0
 14 21  1  0  0  0  0
 14 45  1  0  0  0  0
 15 17  1  0  0  0  0
 15 46  1  0  0  0  0
 15 47  1  0  0  0  0
 16 22  1  0  0  0  0
 16 48  1  0  0  0  0
 16 49  1  0  0  0  0
 17 50  1  0  0  0  0
 17 51  1  0  0  0  0
 18 52  1  0  0  0  0
 18 53  1  0  0  0  0
 18 54  1  0  0  0  0
 19 22  1  0  0  0  0
 19 55  1  0  0  0  0
 19 56  1  0  0  0  0
 20 57  1  0  0  0  0
 20 58  1  0  0  0  0
 20 59  1  0  0  0  0
 21 23  1  0  0  0  0
 21 24  1  0  0  0  0
 21 60  1  0  0  0  0
 23 25  1  0  0  0  0
 23 61  1  0  0  0  0
 23 62  1  0  0  0  0
 24 63  1  0  0  0  0
 24 64  1  0  0  0  0
 24 65  1  0  0  0  0
 25 26  1  0  0  0  0
 25 66  1  0  0  0  0
 25 67  1  0  0  0  0
 26 27  1  0  0  0  0
 26 28  2  0  0  0  0
 27 29  1  0  0  0  0
 27 30  1  0  0  0  0
 27 68  1  0  0  0  0
 28 69  1  0  0  0  0
 28 70  1  0  0  0  0
 29 71  1  0  0  0  0
 29 72  1  0  0  0  0
 29 73  1  0  0  0  0
 30 74  1  0  0  0  0
 30 75  1  0  0  0  0
 30 76  1  0  0  0  0
M  END
> <PUBCHEM_COMPOUND_CID>
44423599

> <PUBCHEM_CONFORMER_RMSD>
1

> <PUBCHEM_CONFORMER_DIVERSEORDER>
1
13
21
28
20
26
19
11
27
16
3
5
4
22
14
12
24
10
23
18
2
17
9
15
8
7
25
6

> <PUBCHEM_MMFF94_PARTIAL_CHARGES>
19
1 -0.57
11 0.09
16 0.06
19 0.06
2 -0.19
22 0.45
25 0.14
26 -0.28
27 0.14
28 -0.3
3 -0.19
32 0.1
33 0.1
4 -0.2
5 0.09
69 0.15
7 0.09
70 0.15
9 0.09

> <PUBCHEM_EFFECTIVE_ROTOR_COUNT>
7.2

> <PUBCHEM_PHARMACOPHORE_FEATURES>
9
1 1 acceptor
1 24 hydrophobe
1 28 hydrophobe
3 27 29 30 hydrophobe
5 21 23 25 26 27 hydrophobe
5 6 8 14 15 17 rings
6 2 5 6 8 9 12 rings
6 3 7 11 16 19 22 rings
7 2 3 4 5 7 10 13 rings

> <PUBCHEM_HEAVY_ATOM_COUNT>
30

> <PUBCHEM_ATOM_DEF_STEREO_COUNT>
8

> <PUBCHEM_ATOM_UDEF_STEREO_COUNT>
0

> <PUBCHEM_BOND_DEF_STEREO_COUNT>
0

> <PUBCHEM_BOND_UDEF_STEREO_COUNT>
0

> <PUBCHEM_ISOTOPIC_ATOM_COUNT>
0

> <PUBCHEM_COMPONENT_COUNT>
1

> <PUBCHEM_CACTVS_TAUTO_COUNT>
3

> <PUBCHEM_CONFORMER_ID>
02A5D9AF00000001

> <PUBCHEM_MMFF94_ENERGY>
111.8668

> <PUBCHEM_FEATURE_SELFOVERLAP>
45.801

> <PUBCHEM_SHAPE_FINGERPRINT>
10 15 18260546753519092376
10162869 55 18340477963561464703
106641 1 18040994068741052248
11456790 92 17988352694676800274
11578080 2 17631159978030408522
11646440 116 18410014325175283361
11719270 70 18113620080109958675
11724838 91 18410571803540407383
12035758 1 18187081749863040436
12236239 1 17632292354737279927
13533116 47 18340493253212937054
13540713 4 18046336432352057828
13540713 5 17899138497013171982
13692114 37 17386009506874639275
13782708 43 17022907843922087705
13811026 1 18040711447124027421
13835254 42 17987807297596165632
14251757 52 15913329095728949233
14251764 18 18411983576586373309
14347424 109 16805324431044583276
14461889 52 18410296938671664811
15064981 113 12974149845093616587
15183329 4 18261120673156396511
15188451 53 16371002996860614108
15840311 113 18060701689044678988
16994733 274 16630530609569531467
1979834 28 18410016507556343894
20028762 73 18335426742725187871
20105231 36 18040993992012234522
20505436 4 17203319031997110318
21130935 74 18342182112027379339
21267235 1 18261399888764220126
21304304 249 16298383552607499642
21521721 280 15913333498360545223
21792934 111 18261672572117117861
21792965 215 17628348583007878747
22149856 69 18267604450476075065
2215653 11 9007053569556073068
22224240 67 18411416211580865891
22956985 138 14925889460186038178
23559900 14 18340216220065523214
23576562 1 11167354212644532809
24771293 8 18342179981507361557
29717793 49 11241972581283113397
3383291 50 17821451257496831515
34797466 226 17131838663539655332
3663271 9 18130512946873101763
4093350 32 16988850458092602524
4340502 62 18413109446138586966
465052 167 15647060356467295048
474113 269 15864337026680342371
5104073 3 18191867829679763049
58260988 393 17346322548580404792
59682541 35 18409165545184892569
6081469 158 15430031063907680455
6328613 192 10807930462678398811
70251023 43 15481290209947409894

> <PUBCHEM_SHAPE_MULTIPOLES>
611.52
21.09
2.06
1.64
32.23
0.34
0.12
-1.08
11.4
-0.88
-0.05
-0.8
-0.28
0.74

> <PUBCHEM_SHAPE_SELFOVERLAP>
1287.948

> <PUBCHEM_SHAPE_VOLUME>
345.2

> <PUBCHEM_COORDINATE_TYPE>
2
5
10

$$$$
