13093581
  -OEChem-11202012323D

 48 49  0     1  0  0  0  0  0999 V2000
    2.2695   -0.7791   -0.2845 O   0  0  0  0  0  0  0  0  0  0  0  0
   -2.3494    0.8817    0.1913 O   0  0  0  0  0  0  0  0  0  0  0  0
   -0.4251   -0.4367    0.1374 O   0  0  0  0  0  0  0  0  0  0  0  0
    2.2669    2.8167    0.4106 O   0  0  0  0  0  0  0  0  0  0  0  0
   -2.0179   -2.6983   -0.4593 O   0  0  0  0  0  0  0  0  0  0  0  0
    4.9967    2.2901   -0.3809 O   0  0  0  0  0  0  0  0  0  0  0  0
   -4.7578   -2.4211    0.5881 O   0  0  0  0  0  0  0  0  0  0  0  0
   -5.9034    0.1037   -0.2296 O   0  0  0  0  0  0  0  0  0  0  0  0
    3.9635   -2.3834   -0.3095 O   0  0  0  0  0  0  0  0  0  0  0  0
    5.8211   -0.4023    0.4862 O   0  0  0  0  0  0  0  0  0  0  0  0
   -3.2825    3.4257   -0.2710 O   0  0  0  0  0  0  0  0  0  0  0  0
    1.7871    0.4596    0.2388 C   0  0  1  0  0  0  0  0  0  0  0  0
    2.7126    1.6020   -0.1868 C   0  0  2  0  0  0  0  0  0  0  0  0
   -2.5466   -1.5387    0.1836 C   0  0  2  0  0  0  0  0  0  0  0  0
    4.1521    1.3240    0.2465 C   0  0  1  0  0  0  0  0  0  0  0  0
   -4.0377   -1.4192   -0.1317 C   0  0  2  0  0  0  0  0  0  0  0  0
   -1.7729   -0.3190   -0.3170 C   0  0  1  0  0  0  0  0  0  0  0  0
   -4.5837   -0.0533    0.2851 C   0  0  1  0  0  0  0  0  0  0  0  0
   -3.6950    1.0726   -0.2487 C   0  0  1  0  0  0  0  0  0  0  0  0
    4.5924   -0.0809   -0.1652 C   0  0  2  0  0  0  0  0  0  0  0  0
    0.3679    0.6581   -0.2839 C   0  0  0  0  0  0  0  0  0  0  0  0
    3.5519   -1.1283    0.2313 C   0  0  1  0  0  0  0  0  0  0  0  0
   -4.1531    2.4390    0.2517 C   0  0  0  0  0  0  0  0  0  0  0  0
    3.0433   -3.4128    0.0175 C   0  0  0  0  0  0  0  0  0  0  0  0
    1.7372    0.3796    1.3334 H   0  0  0  0  0  0  0  0  0  0  0  0
    2.6800    1.7402   -1.2745 H   0  0  0  0  0  0  0  0  0  0  0  0
   -2.3956   -1.6768    1.2608 H   0  0  0  0  0  0  0  0  0  0  0  0
    4.2713    1.4643    1.3280 H   0  0  0  0  0  0  0  0  0  0  0  0
   -4.2312   -1.6033   -1.1956 H   0  0  0  0  0  0  0  0  0  0  0  0
   -1.7616   -0.2927   -1.4152 H   0  0  0  0  0  0  0  0  0  0  0  0
   -4.6507   -0.0063    1.3790 H   0  0  0  0  0  0  0  0  0  0  0  0
   -3.7023    1.0939   -1.3470 H   0  0  0  0  0  0  0  0  0  0  0  0
    4.7864   -0.1173   -1.2437 H   0  0  0  0  0  0  0  0  0  0  0  0
    0.3732    0.6893   -1.3803 H   0  0  0  0  0  0  0  0  0  0  0  0
   -0.0405    1.5990    0.1002 H   0  0  0  0  0  0  0  0  0  0  0  0
    3.5014   -1.2271    1.3243 H   0  0  0  0  0  0  0  0  0  0  0  0
   -4.1104    2.5008    1.3442 H   0  0  0  0  0  0  0  0  0  0  0  0
   -5.1710    2.6697   -0.0751 H   0  0  0  0  0  0  0  0  0  0  0  0
    2.2853    2.7011    1.3760 H   0  0  0  0  0  0  0  0  0  0  0  0
   -2.1469   -2.5968   -1.4178 H   0  0  0  0  0  0  0  0  0  0  0  0
    4.6831    3.1702   -0.1106 H   0  0  0  0  0  0  0  0  0  0  0  0
   -4.3845   -3.2832    0.3365 H   0  0  0  0  0  0  0  0  0  0  0  0
   -5.8528    0.0749   -1.2003 H   0  0  0  0  0  0  0  0  0  0  0  0
    5.6701   -0.3734    1.4464 H   0  0  0  0  0  0  0  0  0  0  0  0
   -2.3810    3.2078    0.0218 H   0  0  0  0  0  0  0  0  0  0  0  0
    2.0826   -3.2559   -0.4821 H   0  0  0  0  0  0  0  0  0  0  0  0
    2.9009   -3.4813    1.1006 H   0  0  0  0  0  0  0  0  0  0  0  0
    3.4560   -4.3622   -0.3350 H   0  0  0  0  0  0  0  0  0  0  0  0
  1 12  1  0  0  0  0
  1 22  1  0  0  0  0
  2 17  1  0  0  0  0
  2 19  1  0  0  0  0
  3 17  1  0  0  0  0
  3 21  1  0  0  0  0
  4 13  1  0  0  0  0
  4 39  1  0  0  0  0
  5 14  1  0  0  0  0
  5 40  1  0  0  0  0
  6 15  1  0  0  0  0
  6 41  1  0  0  0  0
  7 16  1  0  0  0  0
  7 42  1  0  0  0  0
  8 18  1  0  0  0  0
  8 43  1  0  0  0  0
  9 22  1  0  0  0  0
  9 24  1  0  0  0  0
 10 20  1  0  0  0  0
 10 44  1  0  0  0  0
 11 23  1  0  0  0  0
 11 45  1  0  0  0  0
 12 13  1  0  0  0  0
 12 21  1  0  0  0  0
 12 25  1  0  0  0  0
 13 15  1  0  0  0  0
 13 26  1  0  0  0  0
 14 16  1  0  0  0  0
 14 17  1  0  0  0  0
 14 27  1  0  0  0  0
 15 20  1  0  0  0  0
 15 28  1  0  0  0  0
 16 18  1  0  0  0  0
 16 29  1  0  0  0  0
 17 30  1  0  0  0  0
 18 19  1  0  0  0  0
 18 31  1  0  0  0  0
 19 23  1  0  0  0  0
 19 32  1  0  0  0  0
 20 22  1  0  0  0  0
 20 33  1  0  0  0  0
 21 34  1  0  0  0  0
 21 35  1  0  0  0  0
 22 36  1  0  0  0  0
 23 37  1  0  0  0  0
 23 38  1  0  0  0  0
 24 46  1  0  0  0  0
 24 47  1  0  0  0  0
 24 48  1  0  0  0  0
M  END
> <PUBCHEM_COMPOUND_CID>
13093581

> <PUBCHEM_CONFORMER_RMSD>
0.8

> <PUBCHEM_CONFORMER_DIVERSEORDER>
1
30
114
63
41
44
14
66
85
74
68
56
45
119
120
139
13
137
3
86
94
31
36
75
58
59
72
2
77
128
99
76
134
61
111
103
35
104
21
67
96
47
37
92
129
88
43
10
98
135
51
26
33
73
24
116
110
79
65
50
102
117
100
133
69
17
101
127
12
89
38
70
136
60
121
23
25
7
57
123
34
62
90
125
130
11
54
82
4
64
113
97
49
22
27
115
118
55
9
28
48
53
78
20
131
15
107
42
108
40
91
122
46
29
80
5
112
109
106
32
87
95
138
84
93
124
8
81
83
18
126
16
132
19
71
52
105
6
39

> <PUBCHEM_MMFF94_PARTIAL_CHARGES>
31
1 -0.56
10 -0.68
11 -0.68
12 0.28
13 0.28
14 0.28
15 0.28
16 0.28
17 0.56
18 0.28
19 0.28
2 -0.56
20 0.28
21 0.28
22 0.56
23 0.28
24 0.28
3 -0.56
39 0.4
4 -0.68
40 0.4
41 0.4
42 0.4
43 0.4
44 0.4
45 0.4
5 -0.68
6 -0.68
7 -0.68
8 -0.68
9 -0.56

> <PUBCHEM_EFFECTIVE_ROTOR_COUNT>
7.4

> <PUBCHEM_PHARMACOPHORE_FEATURES>
20
1 1 acceptor
1 10 acceptor
1 10 donor
1 11 acceptor
1 11 donor
1 2 acceptor
1 3 acceptor
1 4 acceptor
1 4 donor
1 5 acceptor
1 5 donor
1 6 acceptor
1 6 donor
1 7 acceptor
1 7 donor
1 8 acceptor
1 8 donor
1 9 acceptor
6 1 12 13 15 20 22 rings
6 2 14 16 17 18 19 rings

> <PUBCHEM_HEAVY_ATOM_COUNT>
24

> <PUBCHEM_ATOM_DEF_STEREO_COUNT>
10

> <PUBCHEM_ATOM_UDEF_STEREO_COUNT>
0

> <PUBCHEM_BOND_DEF_STEREO_COUNT>
0

> <PUBCHEM_BOND_UDEF_STEREO_COUNT>
0

> <PUBCHEM_ISOTOPIC_ATOM_COUNT>
0

> <PUBCHEM_COMPONENT_COUNT>
1

> <PUBCHEM_CACTVS_TAUTO_COUNT>
1

> <PUBCHEM_CONFORMER_ID>
00C7CACD00000001

> <PUBCHEM_MMFF94_ENERGY>
68.4883

> <PUBCHEM_FEATURE_SELFOVERLAP>
101.636

> <PUBCHEM_SHAPE_FINGERPRINT>
10595046 47 18410292544545047885
10616163 171 18340770467334404150
11405975 8 18337954484879379115
12107183 9 17906734700320695161
13073987 5 18339643334866224067
13167823 11 18410572889966725026
13533116 47 18341890788452762327
13583140 156 17917700331711407624
14341114 176 18409454699779464237
14866123 147 16973367968474020610
15042514 8 18265337386407213267
15196674 1 18410293631171767242
15250474 111 18270387395103844303
15256400 18 18410575046282868341
17492 89 18410576188639258675
17844677 252 18339368469691311353
17857418 61 18410851070766764699
1813 80 16950004720546131244
20645477 70 18273218569310648254
21065198 57 18410856529717456375
21065199 12 18411418427330043657
21267235 1 18410300232573638850
21279426 13 18122906430146353295
21421861 104 17897155820209086618
23402539 116 18343014532697297517
23559900 14 18412257363286774713
239999 70 18272941509945589278
245318 6 16738065264759675292
3004659 81 18334295345233066098
3421961 26 18339921503309467034
350125 39 18411420588315960393
3545911 37 18411701001829139360
4073 2 18186808014412376290
4214541 1 18410573976846716961
5104073 3 18411418392907002544
543358 83 18339082580052703418
77779 3 18410293609686368257
8272917 22 18412266138485391006
9709674 26 18409172142276115115
9995097 60 18413106134839789550

> <PUBCHEM_SHAPE_MULTIPOLES>
429.35
13.28
3.54
0.65
0.31
0.23
0.01
-0.41
0.52
-0.1
-0.04
0.01
0.01
0.17

> <PUBCHEM_SHAPE_SELFOVERLAP>
873.124

> <PUBCHEM_SHAPE_VOLUME>
245.1

> <PUBCHEM_COORDINATE_TYPE>
2
5
10

$$$$
