102121397
  -OEChem-11202012403D

 76 80  0     1  0  0  0  0  0999 V2000
    7.3499   -0.7055   -1.3414 O   0  0  0  0  0  0  0  0  0  0  0  0
    2.2895   -0.1529    0.9954 C   0  0  2  0  0  0  0  0  0  0  0  0
    3.7541   -0.2892    0.5378 C   0  0  2  0  0  0  0  0  0  0  0  0
    1.5212    1.1407    0.5998 C   0  0  2  0  0  0  0  0  0  0  0  0
    3.4360   -0.0513    1.9910 C   0  0  0  0  0  0  0  0  0  0  0  0
    0.3978    0.7750   -0.4261 C   0  0  1  0  0  0  0  0  0  0  0  0
    4.3685    0.8508   -0.2714 C   0  0  1  0  0  0  0  0  0  0  0  0
   -0.5889   -0.2689    0.2068 C   0  0  2  0  0  0  0  0  0  0  0  0
    1.3924   -1.3659    1.3272 C   0  0  0  0  0  0  0  0  0  0  0  0
    2.3617    2.3456    0.1102 C   0  0  0  0  0  0  0  0  0  0  0  0
    4.2849   -1.6498    0.1148 C   0  0  0  0  0  0  0  0  0  0  0  0
    0.1756   -1.5786    0.4174 C   0  0  0  0  0  0  0  0  0  0  0  0
    3.8741    2.2254    0.1746 C   0  0  0  0  0  0  0  0  0  0  0  0
   -1.7150   -0.3114   -0.8578 C   0  0  2  0  0  0  0  0  0  0  0  0
   -0.5821    1.8998   -0.8099 C   0  0  0  0  0  0  0  0  0  0  0  0
    5.8992    0.8163   -0.1862 C   0  0  0  0  0  0  0  0  0  0  0  0
   -1.8599    1.1707   -1.2824 C   0  0  0  0  0  0  0  0  0  0  0  0
    1.0673    0.2805   -1.7569 C   0  0  0  0  0  0  0  0  0  0  0  0
    5.8051   -1.7128    0.1909 C   0  0  0  0  0  0  0  0  0  0  0  0
   -1.2061    0.1670    1.5728 C   0  0  0  0  0  0  0  0  0  0  0  0
   -3.0439   -0.9342   -0.4444 C   0  0  1  0  0  0  0  0  0  0  0  0
    6.4180   -0.5531   -0.5543 C   0  0  0  0  0  0  0  0  0  0  0  0
   -4.1714   -0.4267   -1.3671 C   0  0  0  0  0  0  0  0  0  0  0  0
   -2.9322   -2.4613   -0.4555 C   0  0  0  0  0  0  0  0  0  0  0  0
   -5.5720   -0.9979   -1.0991 C   0  0  0  0  0  0  0  0  0  0  0  0
   -6.1672   -0.6784    0.2894 C   0  0  2  0  0  0  0  0  0  0  0  0
   -7.5310   -1.3671    0.4283 C   0  0  0  0  0  0  0  0  0  0  0  0
   -6.2758    0.8112    0.5858 C   0  0  0  0  0  0  0  0  0  0  0  0
   -7.1163    1.6664   -0.3226 C   0  0  0  0  0  0  0  0  0  0  0  0
   -5.6336    1.3555    1.6327 C   0  0  0  0  0  0  0  0  0  0  0  0
    1.0550    1.5007    1.5236 H   0  0  0  0  0  0  0  0  0  0  0  0
    3.6056   -0.8731    2.6815 H   0  0  0  0  0  0  0  0  0  0  0  0
    3.6203    0.9026    2.4660 H   0  0  0  0  0  0  0  0  0  0  0  0
    4.0799    0.7001   -1.3207 H   0  0  0  0  0  0  0  0  0  0  0  0
    1.0405   -1.2386    2.3596 H   0  0  0  0  0  0  0  0  0  0  0  0
    1.9615   -2.2990    1.3431 H   0  0  0  0  0  0  0  0  0  0  0  0
    2.0659    3.2289    0.6935 H   0  0  0  0  0  0  0  0  0  0  0  0
    2.0993    2.6221   -0.9157 H   0  0  0  0  0  0  0  0  0  0  0  0
    3.9565   -1.8457   -0.9135 H   0  0  0  0  0  0  0  0  0  0  0  0
    3.8950   -2.4602    0.7360 H   0  0  0  0  0  0  0  0  0  0  0  0
    0.4931   -2.0148   -0.5357 H   0  0  0  0  0  0  0  0  0  0  0  0
   -0.4433   -2.3355    0.9030 H   0  0  0  0  0  0  0  0  0  0  0  0
    4.3145    3.0010   -0.4657 H   0  0  0  0  0  0  0  0  0  0  0  0
    4.2191    2.4615    1.1878 H   0  0  0  0  0  0  0  0  0  0  0  0
   -1.3630   -0.8683   -1.7357 H   0  0  0  0  0  0  0  0  0  0  0  0
   -0.1975    2.5594   -1.5952 H   0  0  0  0  0  0  0  0  0  0  0  0
   -0.8087    2.5350    0.0548 H   0  0  0  0  0  0  0  0  0  0  0  0
    6.2500    1.0410    0.8279 H   0  0  0  0  0  0  0  0  0  0  0  0
    6.3352    1.5547   -0.8684 H   0  0  0  0  0  0  0  0  0  0  0  0
   -2.6935    1.6876   -0.7976 H   0  0  0  0  0  0  0  0  0  0  0  0
   -1.9825    1.2575   -2.3675 H   0  0  0  0  0  0  0  0  0  0  0  0
    0.3435   -0.0221   -2.5180 H   0  0  0  0  0  0  0  0  0  0  0  0
    1.6617    1.0696   -2.2276 H   0  0  0  0  0  0  0  0  0  0  0  0
    1.7396   -0.5668   -1.6005 H   0  0  0  0  0  0  0  0  0  0  0  0
    6.1638   -2.6519   -0.2428 H   0  0  0  0  0  0  0  0  0  0  0  0
    6.1479   -1.6623    1.2303 H   0  0  0  0  0  0  0  0  0  0  0  0
   -1.8642    1.0369    1.4815 H   0  0  0  0  0  0  0  0  0  0  0  0
   -0.4582    0.4191    2.3275 H   0  0  0  0  0  0  0  0  0  0  0  0
   -1.7916   -0.6473    2.0153 H   0  0  0  0  0  0  0  0  0  0  0  0
   -3.3251   -0.6272    0.5648 H   0  0  0  0  0  0  0  0  0  0  0  0
   -4.2797    0.6588   -1.3338 H   0  0  0  0  0  0  0  0  0  0  0  0
   -3.9111   -0.6734   -2.4056 H   0  0  0  0  0  0  0  0  0  0  0  0
   -3.8917   -2.9349   -0.2286 H   0  0  0  0  0  0  0  0  0  0  0  0
   -2.6010   -2.8350   -1.4300 H   0  0  0  0  0  0  0  0  0  0  0  0
   -2.2529   -2.8319    0.3091 H   0  0  0  0  0  0  0  0  0  0  0  0
   -5.5656   -2.0828   -1.2550 H   0  0  0  0  0  0  0  0  0  0  0  0
   -6.2436   -0.6104   -1.8773 H   0  0  0  0  0  0  0  0  0  0  0  0
   -5.5173   -1.1434    1.0426 H   0  0  0  0  0  0  0  0  0  0  0  0
   -8.2304   -1.0507   -0.3530 H   0  0  0  0  0  0  0  0  0  0  0  0
   -7.4209   -2.4546    0.3518 H   0  0  0  0  0  0  0  0  0  0  0  0
   -7.9854   -1.1483    1.4009 H   0  0  0  0  0  0  0  0  0  0  0  0
   -6.7351    1.6388   -1.3475 H   0  0  0  0  0  0  0  0  0  0  0  0
   -7.1209    2.7157   -0.0075 H   0  0  0  0  0  0  0  0  0  0  0  0
   -8.1558    1.3254   -0.3258 H   0  0  0  0  0  0  0  0  0  0  0  0
   -5.0209    0.7541    2.2960 H   0  0  0  0  0  0  0  0  0  0  0  0
   -5.7029    2.4161    1.8507 H   0  0  0  0  0  0  0  0  0  0  0  0
  1 22  2  0  0  0  0
  2  3  1  0  0  0  0
  2  4  1  0  0  0  0
  2  5  1  0  0  0  0
  2  9  1  0  0  0  0
  3  5  1  0  0  0  0
  3  7  1  0  0  0  0
  3 11  1  0  0  0  0
  4  6  1  0  0  0  0
  4 10  1  0  0  0  0
  4 31  1  0  0  0  0
  5 32  1  0  0  0  0
  5 33  1  0  0  0  0
  6  8  1  0  0  0  0
  6 15  1  0  0  0  0
  6 18  1  0  0  0  0
  7 13  1  0  0  0  0
  7 16  1  0  0  0  0
  7 34  1  0  0  0  0
  8 12  1  0  0  0  0
  8 14  1  0  0  0  0
  8 20  1  0  0  0  0
  9 12  1  0  0  0  0
  9 35  1  0  0  0  0
  9 36  1  0  0  0  0
 10 13  1  0  0  0  0
 10 37  1  0  0  0  0
 10 38  1  0  0  0  0
 11 19  1  0  0  0  0
 11 39  1  0  0  0  0
 11 40  1  0  0  0  0
 12 41  1  0  0  0  0
 12 42  1  0  0  0  0
 13 43  1  0  0  0  0
 13 44  1  0  0  0  0
 14 17  1  0  0  0  0
 14 21  1  0  0  0  0
 14 45  1  0  0  0  0
 15 17  1  0  0  0  0
 15 46  1  0  0  0  0
 15 47  1  0  0  0  0
 16 22  1  0  0  0  0
 16 48  1  0  0  0  0
 16 49  1  0  0  0  0
 17 50  1  0  0  0  0
 17 51  1  0  0  0  0
 18 52  1  0  0  0  0
 18 53  1  0  0  0  0
 18 54  1  0  0  0  0
 19 22  1  0  0  0  0
 19 55  1  0  0  0  0
 19 56  1  0  0  0  0
 20 57  1  0  0  0  0
 20 58  1  0  0  0  0
 20 59  1  0  0  0  0
 21 23  1  0  0  0  0
 21 24  1  0  0  0  0
 21 60  1  0  0  0  0
 23 25  1  0  0  0  0
 23 61  1  0  0  0  0
 23 62  1  0  0  0  0
 24 63  1  0  0  0  0
 24 64  1  0  0  0  0
 24 65  1  0  0  0  0
 25 26  1  0  0  0  0
 25 66  1  0  0  0  0
 25 67  1  0  0  0  0
 26 27  1  0  0  0  0
 26 28  1  0  0  0  0
 26 68  1  0  0  0  0
 27 69  1  0  0  0  0
 27 70  1  0  0  0  0
 27 71  1  0  0  0  0
 28 29  1  0  0  0  0
 28 30  2  0  0  0  0
 29 72  1  0  0  0  0
 29 73  1  0  0  0  0
 29 74  1  0  0  0  0
 30 75  1  0  0  0  0
 30 76  1  0  0  0  0
M  END
> <PUBCHEM_COMPOUND_CID>
102121397

> <PUBCHEM_CONFORMER_RMSD>
1

> <PUBCHEM_CONFORMER_DIVERSEORDER>
1
13
19
4
22
12
7
9
8
21
14
16
18
2
15
20
10
23
5
17
11
6
3

> <PUBCHEM_MMFF94_PARTIAL_CHARGES>
19
1 -0.57
11 0.09
16 0.06
19 0.06
2 -0.19
22 0.45
26 0.14
28 -0.28
29 0.14
3 -0.19
30 -0.3
32 0.1
33 0.1
4 0.09
5 -0.2
7 0.09
75 0.15
76 0.15
9 0.09

> <PUBCHEM_EFFECTIVE_ROTOR_COUNT>
7.2

> <PUBCHEM_PHARMACOPHORE_FEATURES>
8
1 1 acceptor
1 24 hydrophobe
1 27 hydrophobe
5 21 23 25 26 28 hydrophobe
5 6 8 14 15 17 rings
6 2 4 6 8 9 12 rings
6 3 7 11 16 19 22 rings
7 2 3 4 5 7 10 13 rings

> <PUBCHEM_HEAVY_ATOM_COUNT>
30

> <PUBCHEM_ATOM_DEF_STEREO_COUNT>
9

> <PUBCHEM_ATOM_UDEF_STEREO_COUNT>
0

> <PUBCHEM_BOND_DEF_STEREO_COUNT>
0

> <PUBCHEM_BOND_UDEF_STEREO_COUNT>
0

> <PUBCHEM_ISOTOPIC_ATOM_COUNT>
0

> <PUBCHEM_COMPONENT_COUNT>
1

> <PUBCHEM_CACTVS_TAUTO_COUNT>
3

> <PUBCHEM_CONFORMER_ID>
06163FB500000001

> <PUBCHEM_MMFF94_ENERGY>
113.1884

> <PUBCHEM_FEATURE_SELFOVERLAP>
40.707

> <PUBCHEM_SHAPE_FINGERPRINT>
10076449 9 18114186328492287604
10299344 5 18411983559142935423
10674148 151 18341895186931822770
10930396 42 12031214037094821094
11089746 13 13973963212348121829
11578080 2 17271990246079746170
11796584 16 17274823605597586142
12166972 35 18130788996926868321
12236239 1 18343582958396456313
12422481 6 18336825295723867989
12596602 18 18410292545484103657
12730499 353 17749104496121873298
13533116 47 18130785707192688320
13782708 43 17241318058788872026
13914758 101 14476969964955537035
14294032 229 17130165116980619233
14790565 3 18334857255556553501
14840074 17 18040433295877120719
14849402 71 18263931093227943965
14856354 85 18260834826056342655
14955137 171 17894918472691508613
15131766 46 15336835470321063848
15142383 8 16845570894680279592
15183329 4 18272366464815174711
15361156 5 18114750433264611847
15461852 350 18060410327970696733
15475509 8 18412833464741286236
15537594 2 17749381577020109243
15840311 113 18335984255313024101
15849732 13 18334297569962737655
18335252 98 14707213201527658201
18608769 82 17386009498104790522
20105231 36 18259992565183352259
20157964 124 9079124370787111396
21150785 3 16081089285581248550
21267235 1 18335139799536827375
21521721 280 17748831830228353952
21792961 116 17313387786873886234
21859007 373 14117527493158175371
221357 26 18335415769040756244
23522609 53 18267889274615556053
23559900 14 18337382872594307892
23569943 247 17897153637612060771
24771293 8 18193542588201124224
2838139 119 15841549661712569761
3004659 81 18202562886989371986
34797466 226 15574722374285455054
350125 39 18335980891625351461
4073 2 18188772893447175234
4093350 32 17704074032193319580
4258327 124 14346380994921427390
4340502 62 14273731854810617480
46194498 28 18187362143315127804
474113 269 14332574341358786652
5104073 3 18188759682269821171
5381727 24 13045944625750505608
59755656 215 16845578582186358598
6086070 43 16415180279491292145
6328613 192 18413108377071557809
6371009 1 10663820797234621291
7226269 152 17846780698592203825

> <PUBCHEM_SHAPE_MULTIPOLES>
611.52
18.59
2.14
1.45
11.95
0.21
-0.17
-2.1
0.63
0.04
0.02
0.22
0.06
-0.5

> <PUBCHEM_SHAPE_SELFOVERLAP>
1288.09

> <PUBCHEM_SHAPE_VOLUME>
344.9

> <PUBCHEM_COORDINATE_TYPE>
2
5
10

$$$$
