127197
  -OEChem-11202012242D

169174  0     1  0  0  0  0  0999 V2000
   14.9904    0.6251    0.0000 O   0  0  0  0  0  0  0  0  0  0  0  0
   13.2583    0.6251    0.0000 O   0  0  0  0  0  0  0  0  0  0  0  0
   14.9904   -1.3749    0.0000 O   0  0  0  0  0  0  0  0  0  0  0  0
   13.2583   -2.3749    0.0000 O   0  0  0  0  0  0  0  0  0  0  0  0
   11.5263   -1.3749    0.0000 O   0  0  0  0  0  0  0  0  0  0  0  0
   10.6603    0.1251    0.0000 O   0  0  0  0  0  0  0  0  0  0  0  0
    8.9282   -0.8749    0.0000 O   0  0  0  0  0  0  0  0  0  0  0  0
   10.6603    2.1251    0.0000 O   0  0  0  0  0  0  0  0  0  0  0  0
    7.1962    0.1251    0.0000 O   0  0  0  0  0  0  0  0  0  0  0  0
    8.9282    3.1251    0.0000 O   0  0  0  0  0  0  0  0  0  0  0  0
    7.1962    2.1251    0.0000 O   0  0  0  0  0  0  0  0  0  0  0  0
    7.1962   -0.8749    0.0000 O   0  0  0  0  0  0  0  0  0  0  0  0
   15.0196    6.8220    0.0000 C   0  0  3  0  0  0  0  0  0  0  0  0
   15.8876    6.3253    0.0000 C   0  0  3  0  0  0  0  0  0  0  0  0
   15.8914    5.3253    0.0000 C   0  0  3  0  0  0  0  0  0  0  0  0
   15.0274    4.8220    0.0000 C   0  0  3  0  0  0  0  0  0  0  0  0
   15.2251    7.7946    0.0000 C   0  0  3  0  0  0  0  0  0  0  0  0
   14.1556    6.3186    0.0000 C   0  0  0  0  0  0  0  0  0  0  0  0
   15.0153    3.7804    0.0000 C   0  0  3  0  0  0  0  0  0  0  0  0
   16.6220    6.9952    0.0000 C   0  0  0  0  0  0  0  0  0  0  0  0
   14.1594    5.3186    0.0000 C   0  0  0  0  0  0  0  0  0  0  0  0
   16.2134    7.9015    0.0000 C   0  0  0  0  0  0  0  0  0  0  0  0
   16.8034    4.8220    0.0000 C   0  0  0  0  0  0  0  0  0  0  0  0
   14.5544    8.5363    0.0000 C   0  0  3  0  0  0  0  0  0  0  0  0
   14.1517    7.3186    0.0000 C   0  0  0  0  0  0  0  0  0  0  0  0
   15.9154    3.2561    0.0000 C   0  0  0  0  0  0  0  0  0  0  0  0
   14.0654    3.2561    0.0000 C   0  0  0  0  0  0  0  0  0  0  0  0
   16.8154    3.7804    0.0000 C   0  0  0  0  0  0  0  0  0  0  0  0
   14.1512    4.2838    0.0000 C   0  0  0  0  0  0  0  0  0  0  0  0
   15.9279    2.1712    0.0000 C   0  0  0  0  0  0  0  0  0  0  0  0
   14.0528    2.1712    0.0000 C   0  0  0  0  0  0  0  0  0  0  0  0
   14.8614    9.4880    0.0000 C   0  0  0  0  0  0  0  0  0  0  0  0
   14.9904    1.6251    0.0000 C   0  0  3  0  0  0  0  0  0  0  0  0
   13.5767    8.3263    0.0000 C   0  0  0  0  0  0  0  0  0  0  0  0
   14.1907   10.2297    0.0000 C   0  0  0  0  0  0  0  0  0  0  0  0
   14.4977   11.1815    0.0000 C   0  0  3  0  0  0  0  0  0  0  0  0
   14.1244    0.1251    0.0000 C   0  0  3  0  0  0  0  0  0  0  0  0
   13.8270   11.9232    0.0000 C   0  0  0  0  0  0  0  0  0  0  0  0
   15.4754   11.3914    0.0000 C   0  0  0  0  0  0  0  0  0  0  0  0
   14.1244   -0.8749    0.0000 C   0  0  3  0  0  0  0  0  0  0  0  0
   14.1340   12.8749    0.0000 C   0  0  0  0  0  0  0  0  0  0  0  0
   12.8493   11.7132    0.0000 C   0  0  0  0  0  0  0  0  0  0  0  0
   13.2583   -1.3749    0.0000 C   0  0  3  0  0  0  0  0  0  0  0  0
   15.7824   12.3432    0.0000 C   0  0  0  0  0  0  0  0  0  0  0  0
   12.3923    0.1251    0.0000 C   0  0  3  0  0  0  0  0  0  0  0  0
   12.3923   -0.8749    0.0000 C   0  0  3  0  0  0  0  0  0  0  0  0
   11.5263    0.6251    0.0000 C   0  0  0  0  0  0  0  0  0  0  0  0
    9.7942    0.6251    0.0000 C   0  0  3  0  0  0  0  0  0  0  0  0
    8.9282    0.1251    0.0000 C   0  0  3  0  0  0  0  0  0  0  0  0
    9.7942    1.6251    0.0000 C   0  0  3  0  0  0  0  0  0  0  0  0
    8.0622    0.6251    0.0000 C   0  0  3  0  0  0  0  0  0  0  0  0
    8.9282    2.1251    0.0000 C   0  0  3  0  0  0  0  0  0  0  0  0
    8.0622    1.6251    0.0000 C   0  0  3  0  0  0  0  0  0  0  0  0
    8.0622   -1.3749    0.0000 C   0  0  0  0  0  0  0  0  0  0  0  0
    8.0622   -2.3749    0.0000 C   0  0  0  0  0  0  0  0  0  0  0  0
    7.1962   -2.8749    0.0000 C   0  0  0  0  0  0  0  0  0  0  0  0
    7.1962   -3.8749    0.0000 C   0  0  0  0  0  0  0  0  0  0  0  0
    6.3301   -4.3749    0.0000 C   0  0  0  0  0  0  0  0  0  0  0  0
    6.3301   -5.3749    0.0000 C   0  0  0  0  0  0  0  0  0  0  0  0
    5.4641   -5.8749    0.0000 C   0  0  0  0  0  0  0  0  0  0  0  0
    5.4641   -6.8749    0.0000 C   0  0  0  0  0  0  0  0  0  0  0  0
    4.5981   -7.3749    0.0000 C   0  0  0  0  0  0  0  0  0  0  0  0
    4.5981   -8.3749    0.0000 C   0  0  0  0  0  0  0  0  0  0  0  0
    3.7320   -8.8749    0.0000 C   0  0  0  0  0  0  0  0  0  0  0  0
    3.7320   -9.8749    0.0000 C   0  0  0  0  0  0  0  0  0  0  0  0
    2.8660  -10.3749    0.0000 C   0  0  0  0  0  0  0  0  0  0  0  0
    2.8660  -11.3749    0.0000 C   0  0  0  0  0  0  0  0  0  0  0  0
    2.0000  -11.8749    0.0000 C   0  0  0  0  0  0  0  0  0  0  0  0
    2.0000  -12.8749    0.0000 C   0  0  0  0  0  0  0  0  0  0  0  0
   16.4553    6.0761    0.0000 H   0  0  0  0  0  0  0  0  0  0  0  0
   16.4248    5.6415    0.0000 H   0  0  0  0  0  0  0  0  0  0  0  0
   15.5631    4.5099    0.0000 H   0  0  0  0  0  0  0  0  0  0  0  0
   15.4458    8.3740    0.0000 H   0  0  0  0  0  0  0  0  0  0  0  0
   13.9413    6.9004    0.0000 H   0  0  0  0  0  0  0  0  0  0  0  0
   13.5454    6.2086    0.0000 H   0  0  0  0  0  0  0  0  0  0  0  0
   16.9894    6.4958    0.0000 H   0  0  0  0  0  0  0  0  0  0  0  0
   17.1573    7.3081    0.0000 H   0  0  0  0  0  0  0  0  0  0  0  0
   13.5484    5.4240    0.0000 H   0  0  0  0  0  0  0  0  0  0  0  0
   13.9496    4.7352    0.0000 H   0  0  0  0  0  0  0  0  0  0  0  0
   16.8023    8.0955    0.0000 H   0  0  0  0  0  0  0  0  0  0  0  0
   16.0823    8.5074    0.0000 H   0  0  0  0  0  0  0  0  0  0  0  0
   17.4154    4.7230    0.0000 H   0  0  0  0  0  0  0  0  0  0  0  0
   17.0057    5.4081    0.0000 H   0  0  0  0  0  0  0  0  0  0  0  0
   14.3641    7.9463    0.0000 H   0  0  0  0  0  0  0  0  0  0  0  0
   14.4596    7.8568    0.0000 H   0  0  0  0  0  0  0  0  0  0  0  0
   13.6136    7.6266    0.0000 H   0  0  0  0  0  0  0  0  0  0  0  0
   13.8438    6.7805    0.0000 H   0  0  0  0  0  0  0  0  0  0  0  0
   13.8631    3.8422    0.0000 H   0  0  0  0  0  0  0  0  0  0  0  0
   13.4534    3.1571    0.0000 H   0  0  0  0  0  0  0  0  0  0  0  0
   17.3547    3.4746    0.0000 H   0  0  0  0  0  0  0  0  0  0  0  0
   14.4633    4.8195    0.0000 H   0  0  0  0  0  0  0  0  0  0  0  0
   13.6155    4.5958    0.0000 H   0  0  0  0  0  0  0  0  0  0  0  0
   13.8391    3.7480    0.0000 H   0  0  0  0  0  0  0  0  0  0  0  0
   16.1437    1.5900    0.0000 H   0  0  0  0  0  0  0  0  0  0  0  0
   16.5375    2.2844    0.0000 H   0  0  0  0  0  0  0  0  0  0  0  0
   13.4433    2.2844    0.0000 H   0  0  0  0  0  0  0  0  0  0  0  0
   13.8371    1.5900    0.0000 H   0  0  0  0  0  0  0  0  0  0  0  0
   15.4094    9.1981    0.0000 H   0  0  0  0  0  0  0  0  0  0  0  0
   15.2421    9.9774    0.0000 H   0  0  0  0  0  0  0  0  0  0  0  0
   15.5279    1.3161    0.0000 H   0  0  0  0  0  0  0  0  0  0  0  0
   13.4465    8.9325    0.0000 H   0  0  0  0  0  0  0  0  0  0  0  0
   12.9705    8.1961    0.0000 H   0  0  0  0  0  0  0  0  0  0  0  0
   13.7069    7.7202    0.0000 H   0  0  0  0  0  0  0  0  0  0  0  0
   13.6426   10.5197    0.0000 H   0  0  0  0  0  0  0  0  0  0  0  0
   13.8100    9.7404    0.0000 H   0  0  0  0  0  0  0  0  0  0  0  0
   14.6880   11.7715    0.0000 H   0  0  0  0  0  0  0  0  0  0  0  0
   14.6613   -0.1849    0.0000 H   0  0  0  0  0  0  0  0  0  0  0  0
   13.4111   12.3830    0.0000 H   0  0  0  0  0  0  0  0  0  0  0  0
   15.4983   10.7719    0.0000 H   0  0  0  0  0  0  0  0  0  0  0  0
   16.0895   11.3065    0.0000 H   0  0  0  0  0  0  0  0  0  0  0  0
   14.1244   -1.4949    0.0000 H   0  0  0  0  0  0  0  0  0  0  0  0
   14.7240   12.6846    0.0000 H   0  0  0  0  0  0  0  0  0  0  0  0
   14.3243   13.4650    0.0000 H   0  0  0  0  0  0  0  0  0  0  0  0
   13.5439   13.0652    0.0000 H   0  0  0  0  0  0  0  0  0  0  0  0
   12.7191   12.3194    0.0000 H   0  0  0  0  0  0  0  0  0  0  0  0
   12.2431   11.5830    0.0000 H   0  0  0  0  0  0  0  0  0  0  0  0
   12.9795   11.1070    0.0000 H   0  0  0  0  0  0  0  0  0  0  0  0
   13.7953   -1.6849    0.0000 H   0  0  0  0  0  0  0  0  0  0  0  0
   16.3724   12.1528    0.0000 H   0  0  0  0  0  0  0  0  0  0  0  0
   15.9727   12.9332    0.0000 H   0  0  0  0  0  0  0  0  0  0  0  0
   15.1923   12.5335    0.0000 H   0  0  0  0  0  0  0  0  0  0  0  0
   12.3923    0.7451    0.0000 H   0  0  0  0  0  0  0  0  0  0  0  0
   12.3923   -1.4949    0.0000 H   0  0  0  0  0  0  0  0  0  0  0  0
   14.9904   -1.9949    0.0000 H   0  0  0  0  0  0  0  0  0  0  0  0
   11.9248    1.1000    0.0000 H   0  0  0  0  0  0  0  0  0  0  0  0
   11.1278    1.1000    0.0000 H   0  0  0  0  0  0  0  0  0  0  0  0
   12.7214   -2.6849    0.0000 H   0  0  0  0  0  0  0  0  0  0  0  0
   11.5263   -1.9949    0.0000 H   0  0  0  0  0  0  0  0  0  0  0  0
    9.7942    0.0051    0.0000 H   0  0  0  0  0  0  0  0  0  0  0  0
    8.3913   -0.1849    0.0000 H   0  0  0  0  0  0  0  0  0  0  0  0
   10.3312    1.3151    0.0000 H   0  0  0  0  0  0  0  0  0  0  0  0
    7.5252    0.9351    0.0000 H   0  0  0  0  0  0  0  0  0  0  0  0
    9.4651    2.4351    0.0000 H   0  0  0  0  0  0  0  0  0  0  0  0
    8.0622    2.2451    0.0000 H   0  0  0  0  0  0  0  0  0  0  0  0
   10.6603    2.7451    0.0000 H   0  0  0  0  0  0  0  0  0  0  0  0
    6.6592    0.4351    0.0000 H   0  0  0  0  0  0  0  0  0  0  0  0
    8.3913    3.4351    0.0000 H   0  0  0  0  0  0  0  0  0  0  0  0
    7.1962    2.7451    0.0000 H   0  0  0  0  0  0  0  0  0  0  0  0
    8.2742   -2.9575    0.0000 H   0  0  0  0  0  0  0  0  0  0  0  0
    8.6728   -2.2672    0.0000 H   0  0  0  0  0  0  0  0  0  0  0  0
    6.9841   -2.2923    0.0000 H   0  0  0  0  0  0  0  0  0  0  0  0
    6.5856   -2.9825    0.0000 H   0  0  0  0  0  0  0  0  0  0  0  0
    7.4082   -4.4575    0.0000 H   0  0  0  0  0  0  0  0  0  0  0  0
    7.8067   -3.7672    0.0000 H   0  0  0  0  0  0  0  0  0  0  0  0
    6.1181   -3.7923    0.0000 H   0  0  0  0  0  0  0  0  0  0  0  0
    5.7196   -4.4826    0.0000 H   0  0  0  0  0  0  0  0  0  0  0  0
    6.5422   -5.9575    0.0000 H   0  0  0  0  0  0  0  0  0  0  0  0
    6.9407   -5.2672    0.0000 H   0  0  0  0  0  0  0  0  0  0  0  0
    5.2520   -5.2923    0.0000 H   0  0  0  0  0  0  0  0  0  0  0  0
    4.8535   -5.9826    0.0000 H   0  0  0  0  0  0  0  0  0  0  0  0
    5.6762   -7.4575    0.0000 H   0  0  0  0  0  0  0  0  0  0  0  0
    6.0747   -6.7672    0.0000 H   0  0  0  0  0  0  0  0  0  0  0  0
    4.3860   -6.7923    0.0000 H   0  0  0  0  0  0  0  0  0  0  0  0
    3.9875   -7.4826    0.0000 H   0  0  0  0  0  0  0  0  0  0  0  0
    4.8101   -8.9575    0.0000 H   0  0  0  0  0  0  0  0  0  0  0  0
    5.2087   -8.2672    0.0000 H   0  0  0  0  0  0  0  0  0  0  0  0
    3.5200   -8.2923    0.0000 H   0  0  0  0  0  0  0  0  0  0  0  0
    3.1215   -8.9826    0.0000 H   0  0  0  0  0  0  0  0  0  0  0  0
    3.9441  -10.4575    0.0000 H   0  0  0  0  0  0  0  0  0  0  0  0
    4.3426   -9.7672    0.0000 H   0  0  0  0  0  0  0  0  0  0  0  0
    2.6540   -9.7923    0.0000 H   0  0  0  0  0  0  0  0  0  0  0  0
    2.2554  -10.4826    0.0000 H   0  0  0  0  0  0  0  0  0  0  0  0
    3.0781  -11.9575    0.0000 H   0  0  0  0  0  0  0  0  0  0  0  0
    3.4766  -11.2672    0.0000 H   0  0  0  0  0  0  0  0  0  0  0  0
    1.7880  -11.2923    0.0000 H   0  0  0  0  0  0  0  0  0  0  0  0
    1.3894  -11.9826    0.0000 H   0  0  0  0  0  0  0  0  0  0  0  0
    1.3800  -12.8749    0.0000 H   0  0  0  0  0  0  0  0  0  0  0  0
    2.0000  -13.4949    0.0000 H   0  0  0  0  0  0  0  0  0  0  0  0
    2.6200  -12.8749    0.0000 H   0  0  0  0  0  0  0  0  0  0  0  0
  1 33  1  0  0  0  0
  1 37  1  0  0  0  0
  2 37  1  0  0  0  0
  2 45  1  0  0  0  0
  3 40  1  0  0  0  0
  3124  1  0  0  0  0
  4 43  1  0  0  0  0
  4127  1  0  0  0  0
  5 46  1  0  0  0  0
  5128  1  0  0  0  0
  6 47  1  0  0  0  0
  6 48  1  0  0  0  0
  7 49  1  0  0  0  0
  7 54  1  0  0  0  0
  8 50  1  0  0  0  0
  8135  1  0  0  0  0
  9 51  1  0  0  0  0
  9136  1  0  0  0  0
 10 52  1  0  0  0  0
 10137  1  0  0  0  0
 11 53  1  0  0  0  0
 11138  1  0  0  0  0
 12 54  2  0  0  0  0
 13 14  1  0  0  0  0
 13 17  1  0  0  0  0
 13 18  1  0  0  0  0
 13 25  1  0  0  0  0
 14 15  1  0  0  0  0
 14 20  1  0  0  0  0
 14 70  1  0  0  0  0
 15 16  1  0  0  0  0
 15 23  1  0  0  0  0
 15 71  1  0  0  0  0
 16 19  1  0  0  0  0
 16 21  1  0  0  0  0
 16 72  1  0  0  0  0
 17 22  1  0  0  0  0
 17 24  1  0  0  0  0
 17 73  1  0  0  0  0
 18 21  1  0  0  0  0
 18 74  1  0  0  0  0
 18 75  1  0  0  0  0
 19 26  1  0  0  0  0
 19 27  1  0  0  0  0
 19 29  1  0  0  0  0
 20 22  1  0  0  0  0
 20 76  1  0  0  0  0
 20 77  1  0  0  0  0
 21 78  1  0  0  0  0
 21 79  1  0  0  0  0
 22 80  1  0  0  0  0
 22 81  1  0  0  0  0
 23 28  1  0  0  0  0
 23 82  1  0  0  0  0
 23 83  1  0  0  0  0
 24 32  1  0  0  0  0
 24 34  1  0  0  0  0
 24 84  1  0  0  0  0
 25 85  1  0  0  0  0
 25 86  1  0  0  0  0
 25 87  1  0  0  0  0
 26 28  2  0  0  0  0
 26 30  1  0  0  0  0
 27 31  1  0  0  0  0
 27 88  1  0  0  0  0
 27 89  1  0  0  0  0
 28 90  1  0  0  0  0
 29 91  1  0  0  0  0
 29 92  1  0  0  0  0
 29 93  1  0  0  0  0
 30 33  1  0  0  0  0
 30 94  1  0  0  0  0
 30 95  1  0  0  0  0
 31 33  1  0  0  0  0
 31 96  1  0  0  0  0
 31 97  1  0  0  0  0
 32 35  1  0  0  0  0
 32 98  1  0  0  0  0
 32 99  1  0  0  0  0
 33100  1  0  0  0  0
 34101  1  0  0  0  0
 34102  1  0  0  0  0
 34103  1  0  0  0  0
 35 36  1  0  0  0  0
 35104  1  0  0  0  0
 35105  1  0  0  0  0
 36 38  1  0  0  0  0
 36 39  1  0  0  0  0
 36106  1  0  0  0  0
 37 40  1  0  0  0  0
 37107  1  0  0  0  0
 38 41  1  0  0  0  0
 38 42  1  0  0  0  0
 38108  1  0  0  0  0
 39 44  1  0  0  0  0
 39109  1  0  0  0  0
 39110  1  0  0  0  0
 40 43  1  0  0  0  0
 40111  1  0  0  0  0
 41112  1  0  0  0  0
 41113  1  0  0  0  0
 41114  1  0  0  0  0
 42115  1  0  0  0  0
 42116  1  0  0  0  0
 42117  1  0  0  0  0
 43 46  1  0  0  0  0
 43118  1  0  0  0  0
 44119  1  0  0  0  0
 44120  1  0  0  0  0
 44121  1  0  0  0  0
 45 46  1  0  0  0  0
 45 47  1  0  0  0  0
 45122  1  0  0  0  0
 46123  1  0  0  0  0
 47125  1  0  0  0  0
 47126  1  0  0  0  0
 48 49  1  0  0  0  0
 48 50  1  0  0  0  0
 48129  1  0  0  0  0
 49 51  1  0  0  0  0
 49130  1  0  0  0  0
 50 52  1  0  0  0  0
 50131  1  0  0  0  0
 51 53  1  0  0  0  0
 51132  1  0  0  0  0
 52 53  1  0  0  0  0
 52133  1  0  0  0  0
 53134  1  0  0  0  0
 54 55  1  0  0  0  0
 55 56  1  0  0  0  0
 55139  1  0  0  0  0
 55140  1  0  0  0  0
 56 57  1  0  0  0  0
 56141  1  0  0  0  0
 56142  1  0  0  0  0
 57 58  1  0  0  0  0
 57143  1  0  0  0  0
 57144  1  0  0  0  0
 58 59  1  0  0  0  0
 58145  1  0  0  0  0
 58146  1  0  0  0  0
 59 60  1  0  0  0  0
 59147  1  0  0  0  0
 59148  1  0  0  0  0
 60 61  1  0  0  0  0
 60149  1  0  0  0  0
 60150  1  0  0  0  0
 61 62  1  0  0  0  0
 61151  1  0  0  0  0
 61152  1  0  0  0  0
 62 63  1  0  0  0  0
 62153  1  0  0  0  0
 62154  1  0  0  0  0
 63 64  1  0  0  0  0
 63155  1  0  0  0  0
 63156  1  0  0  0  0
 64 65  1  0  0  0  0
 64157  1  0  0  0  0
 64158  1  0  0  0  0
 65 66  1  0  0  0  0
 65159  1  0  0  0  0
 65160  1  0  0  0  0
 66 67  1  0  0  0  0
 66161  1  0  0  0  0
 66162  1  0  0  0  0
 67 68  1  0  0  0  0
 67163  1  0  0  0  0
 67164  1  0  0  0  0
 68 69  1  0  0  0  0
 68165  1  0  0  0  0
 68166  1  0  0  0  0
 69167  1  0  0  0  0
 69168  1  0  0  0  0
 69169  1  0  0  0  0
M  END
> <PUBCHEM_COMPOUND_CID>
127197

> <PUBCHEM_COMPOUND_CANONICALIZED>
1

> <PUBCHEM_CACTVS_COMPLEXITY>
1580

> <PUBCHEM_CACTVS_HBOND_ACCEPTOR>
12

> <PUBCHEM_CACTVS_HBOND_DONOR>
7

> <PUBCHEM_CACTVS_ROTATABLE_BOND>
27

> <PUBCHEM_CACTVS_SUBSKEYS>
AAADcfB8PAAAAAAAAAAAAAAAAAAAAYAAAAA0YMECAAAAAGCAAAAAGgAACAAADxSwgAMCCAAABgCIAiDSCAAAAAAgAAAACAEAAAgREBIAAQAiQAAFwAAPAAPI6PyPgAAAAAAAAADCAAQQACCAAQAACAAAAA==

> <PUBCHEM_IUPAC_OPENEYE_NAME>
[2-[[6-[[17-(4-ethyl-1,5-dimethyl-hexyl)-10,13-dimethyl-2,3,4,7,8,9,11,12,14,15,16,17-dodecahydro-1H-cyclopenta[a]phenanthren-3-yl]oxy]-3,4,5-trihydroxy-tetrahydropyran-2-yl]methoxy]-3,4,5,6-tetrahydroxy-cyclohexyl] hexadecanoate

> <PUBCHEM_IUPAC_CAS_NAME>
hexadecanoic acid [2-[[6-[[17-(5-ethyl-6-methylheptan-2-yl)-10,13-dimethyl-2,3,4,7,8,9,11,12,14,15,16,17-dodecahydro-1H-cyclopenta[a]phenanthren-3-yl]oxy]-3,4,5-trihydroxy-2-oxanyl]methoxy]-3,4,5,6-tetrahydroxycyclohexyl] ester

> <PUBCHEM_IUPAC_NAME_MARKUP>
[2-[[6-[[17-(5-ethyl-6-methylheptan-2-yl)-10,13-dimethyl-2,3,4,7,8,9,11,12,14,15,16,17-dodecahydro-1<I>H</I>-cyclopenta[a]phenanthren-3-yl]oxy]-3,4,5-trihydroxyoxan-2-yl]methoxy]-3,4,5,6-tetrahydroxycyclohexyl] hexadecanoate

> <PUBCHEM_IUPAC_NAME>
[2-[[6-[[17-(5-ethyl-6-methylheptan-2-yl)-10,13-dimethyl-2,3,4,7,8,9,11,12,14,15,16,17-dodecahydro-1H-cyclopenta[a]phenanthren-3-yl]oxy]-3,4,5-trihydroxyoxan-2-yl]methoxy]-3,4,5,6-tetrahydroxycyclohexyl] hexadecanoate

> <PUBCHEM_IUPAC_SYSTEMATIC_NAME>
[2-[[6-[[17-(5-ethyl-6-methyl-heptan-2-yl)-10,13-dimethyl-2,3,4,7,8,9,11,12,14,15,16,17-dodecahydro-1H-cyclopenta[a]phenanthren-3-yl]oxy]-3,4,5-tris(oxidanyl)oxan-2-yl]methoxy]-3,4,5,6-tetrakis(oxidanyl)cyclohexyl] hexadecanoate

> <PUBCHEM_IUPAC_TRADITIONAL_NAME>
palmitic acid [2-[[6-[[17-(4-ethyl-1,5-dimethyl-hexyl)-10,13-dimethyl-2,3,4,7,8,9,11,12,14,15,16,17-dodecahydro-1H-cyclopenta[a]phenanthren-3-yl]oxy]-3,4,5-trihydroxy-tetrahydropyran-2-yl]methoxy]-3,4,5,6-tetrahydroxy-cyclohexyl] ester

> <PUBCHEM_IUPAC_INCHI>
InChI=1S/C57H100O12/c1-8-10-11-12-13-14-15-16-17-18-19-20-21-22-45(58)69-54-51(64)49(62)48(61)50(63)53(54)66-34-44-46(59)47(60)52(65)55(68-44)67-39-29-31-56(6)38(33-39)25-26-40-42-28-27-41(57(42,7)32-30-43(40)56)36(5)23-24-37(9-2)35(3)4/h25,35-37,39-44,46-55,59-65H,8-24,26-34H2,1-7H3

> <PUBCHEM_IUPAC_INCHIKEY>
IWPRSBXDWFAINE-UHFFFAOYSA-N

> <PUBCHEM_XLOGP3_AA>
12.4

> <PUBCHEM_EXACT_MASS>
976.721479

> <PUBCHEM_MOLECULAR_FORMULA>
C57H100O12

> <PUBCHEM_MOLECULAR_WEIGHT>
977.4

> <PUBCHEM_OPENEYE_CAN_SMILES>
CCCCCCCCCCCCCCCC(=O)OC1C(C(C(C(C1OCC2C(C(C(C(O2)OC3CCC4(C5CCC6(C(C5CC=C4C3)CCC6C(C)CCC(CC)C(C)C)C)C)O)O)O)O)O)O)O

> <PUBCHEM_OPENEYE_ISO_SMILES>
CCCCCCCCCCCCCCCC(=O)OC1C(C(C(C(C1OCC2C(C(C(C(O2)OC3CCC4(C5CCC6(C(C5CC=C4C3)CCC6C(C)CCC(CC)C(C)C)C)C)O)O)O)O)O)O)O

> <PUBCHEM_CACTVS_TPSA>
196

> <PUBCHEM_MONOISOTOPIC_WEIGHT>
976.721479

> <PUBCHEM_TOTAL_CHARGE>
0

> <PUBCHEM_HEAVY_ATOM_COUNT>
69

> <PUBCHEM_ATOM_DEF_STEREO_COUNT>
0

> <PUBCHEM_ATOM_UDEF_STEREO_COUNT>
20

> <PUBCHEM_BOND_DEF_STEREO_COUNT>
0

> <PUBCHEM_BOND_UDEF_STEREO_COUNT>
0

> <PUBCHEM_ISOTOPIC_ATOM_COUNT>
0

> <PUBCHEM_COMPONENT_COUNT>
1

> <PUBCHEM_CACTVS_TAUTO_COUNT>
-1

> <PUBCHEM_COORDINATE_TYPE>
1
5
255

> <PUBCHEM_BONDANNOTATIONS>
33  1  3
37  1  3
52  10  3
53  11  3
13  25  3
14  20  3
15  23  3
16  21  3
17  22  3
19  29  3
24  34  3
40  3  3
36  39  3
43  4  3
45  47  3
46  5  3
48  6  3
49  7  3
50  8  3
51  9  3

$$$$
