6438482
  -OEChem-11202012202D

152156  0     1  0  0  0  0  0999 V2000
   18.4545   -2.8749    0.0000 O   0  0  0  0  0  0  0  0  0  0  0  0
   16.7224   -2.8749    0.0000 O   0  0  0  0  0  0  0  0  0  0  0  0
   18.4545   -4.8749    0.0000 O   0  0  0  0  0  0  0  0  0  0  0  0
   16.7224   -5.8749    0.0000 O   0  0  0  0  0  0  0  0  0  0  0  0
   14.9904   -4.8749    0.0000 O   0  0  0  0  0  0  0  0  0  0  0  0
   14.1244   -3.3749    0.0000 O   0  0  0  0  0  0  0  0  0  0  0  0
   13.2583   -1.8749    0.0000 O   0  0  0  0  0  0  0  0  0  0  0  0
   18.4837    3.3220    0.0000 C   0  0  1  0  0  0  0  0  0  0  0  0
   19.3517    2.8253    0.0000 C   0  0  2  0  0  0  0  0  0  0  0  0
   19.3555    1.8253    0.0000 C   0  0  1  0  0  0  0  0  0  0  0  0
   18.4915    1.3220    0.0000 C   0  0  1  0  0  0  0  0  0  0  0  0
   18.6892    4.2946    0.0000 C   0  0  2  0  0  0  0  0  0  0  0  0
   17.6197    2.8186    0.0000 C   0  0  0  0  0  0  0  0  0  0  0  0
   18.4794    0.2804    0.0000 C   0  0  2  0  0  0  0  0  0  0  0  0
   20.0861    3.4952    0.0000 C   0  0  0  0  0  0  0  0  0  0  0  0
   17.6235    1.8186    0.0000 C   0  0  0  0  0  0  0  0  0  0  0  0
   19.6775    4.4015    0.0000 C   0  0  0  0  0  0  0  0  0  0  0  0
   20.2675    1.3220    0.0000 C   0  0  0  0  0  0  0  0  0  0  0  0
   18.0185    5.0363    0.0000 C   0  0  1  0  0  0  0  0  0  0  0  0
   17.6158    3.8186    0.0000 C   0  0  0  0  0  0  0  0  0  0  0  0
   19.3795   -0.2439    0.0000 C   0  0  0  0  0  0  0  0  0  0  0  0
   17.5295   -0.2439    0.0000 C   0  0  0  0  0  0  0  0  0  0  0  0
   20.2795    0.2804    0.0000 C   0  0  0  0  0  0  0  0  0  0  0  0
   17.6153    0.7838    0.0000 C   0  0  0  0  0  0  0  0  0  0  0  0
   19.3920   -1.3288    0.0000 C   0  0  0  0  0  0  0  0  0  0  0  0
   17.5169   -1.3288    0.0000 C   0  0  0  0  0  0  0  0  0  0  0  0
   18.3255    5.9880    0.0000 C   0  0  0  0  0  0  0  0  0  0  0  0
   18.4545   -1.8749    0.0000 C   0  0  2  0  0  0  0  0  0  0  0  0
   17.0408    4.8263    0.0000 C   0  0  0  0  0  0  0  0  0  0  0  0
   17.6548    6.7298    0.0000 C   0  0  0  0  0  0  0  0  0  0  0  0
   17.9618    7.6815    0.0000 C   0  0  1  0  0  0  0  0  0  0  0  0
   17.5885   -3.3749    0.0000 C   0  0  2  0  0  0  0  0  0  0  0  0
   17.2911    8.4232    0.0000 C   0  0  0  0  0  0  0  0  0  0  0  0
   18.9395    7.8914    0.0000 C   0  0  0  0  0  0  0  0  0  0  0  0
   17.5885   -4.3749    0.0000 C   0  0  1  0  0  0  0  0  0  0  0  0
   17.5981    9.3749    0.0000 C   0  0  0  0  0  0  0  0  0  0  0  0
   16.3134    8.2132    0.0000 C   0  0  0  0  0  0  0  0  0  0  0  0
   19.2465    8.8432    0.0000 C   0  0  0  0  0  0  0  0  0  0  0  0
   16.7224   -4.8749    0.0000 C   0  0  2  0  0  0  0  0  0  0  0  0
   15.8564   -3.3749    0.0000 C   0  0  1  0  0  0  0  0  0  0  0  0
   15.8564   -4.3749    0.0000 C   0  0  1  0  0  0  0  0  0  0  0  0
   14.9904   -2.8749    0.0000 C   0  0  0  0  0  0  0  0  0  0  0  0
   13.2583   -2.8749    0.0000 C   0  0  0  0  0  0  0  0  0  0  0  0
   12.3923   -3.3749    0.0000 C   0  0  0  0  0  0  0  0  0  0  0  0
   11.5263   -2.8749    0.0000 C   0  0  0  0  0  0  0  0  0  0  0  0
   10.6603   -3.3749    0.0000 C   0  0  0  0  0  0  0  0  0  0  0  0
    9.7942   -2.8749    0.0000 C   0  0  0  0  0  0  0  0  0  0  0  0
    8.9282   -3.3749    0.0000 C   0  0  0  0  0  0  0  0  0  0  0  0
    8.0622   -2.8749    0.0000 C   0  0  0  0  0  0  0  0  0  0  0  0
    7.1962   -3.3749    0.0000 C   0  0  0  0  0  0  0  0  0  0  0  0
    6.3301   -2.8749    0.0000 C   0  0  0  0  0  0  0  0  0  0  0  0
    5.4641   -3.3749    0.0000 C   0  0  0  0  0  0  0  0  0  0  0  0
    5.4641   -4.3749    0.0000 C   0  0  0  0  0  0  0  0  0  0  0  0
    4.5981   -4.8749    0.0000 C   0  0  0  0  0  0  0  0  0  0  0  0
    4.5981   -5.8749    0.0000 C   0  0  0  0  0  0  0  0  0  0  0  0
    3.7320   -6.3749    0.0000 C   0  0  0  0  0  0  0  0  0  0  0  0
    3.7320   -7.3749    0.0000 C   0  0  0  0  0  0  0  0  0  0  0  0
    2.8660   -7.8749    0.0000 C   0  0  0  0  0  0  0  0  0  0  0  0
    2.8660   -8.8749    0.0000 C   0  0  0  0  0  0  0  0  0  0  0  0
    2.0000   -9.3749    0.0000 C   0  0  0  0  0  0  0  0  0  0  0  0
   20.1300    2.4836    0.0000 H   0  0  0  0  0  0  0  0  0  0  0  0
   20.0867    2.2588    0.0000 H   0  0  0  0  0  0  0  0  0  0  0  0
   19.2259    0.8942    0.0000 H   0  0  0  0  0  0  0  0  0  0  0  0
   18.9918    5.0889    0.0000 H   0  0  0  0  0  0  0  0  0  0  0  0
   17.4054    3.4004    0.0000 H   0  0  0  0  0  0  0  0  0  0  0  0
   17.0095    2.7086    0.0000 H   0  0  0  0  0  0  0  0  0  0  0  0
   20.4535    2.9958    0.0000 H   0  0  0  0  0  0  0  0  0  0  0  0
   20.6214    3.8081    0.0000 H   0  0  0  0  0  0  0  0  0  0  0  0
   17.0125    1.9240    0.0000 H   0  0  0  0  0  0  0  0  0  0  0  0
   17.4137    1.2352    0.0000 H   0  0  0  0  0  0  0  0  0  0  0  0
   20.2664    4.5955    0.0000 H   0  0  0  0  0  0  0  0  0  0  0  0
   19.5465    5.0075    0.0000 H   0  0  0  0  0  0  0  0  0  0  0  0
   20.8795    1.2230    0.0000 H   0  0  0  0  0  0  0  0  0  0  0  0
   20.4698    1.9081    0.0000 H   0  0  0  0  0  0  0  0  0  0  0  0
   17.8282    4.4463    0.0000 H   0  0  0  0  0  0  0  0  0  0  0  0
   17.9237    4.3568    0.0000 H   0  0  0  0  0  0  0  0  0  0  0  0
   17.0777    4.1266    0.0000 H   0  0  0  0  0  0  0  0  0  0  0  0
   17.3079    3.2805    0.0000 H   0  0  0  0  0  0  0  0  0  0  0  0
   17.3272    0.3422    0.0000 H   0  0  0  0  0  0  0  0  0  0  0  0
   16.9175   -0.3429    0.0000 H   0  0  0  0  0  0  0  0  0  0  0  0
   20.8188   -0.0254    0.0000 H   0  0  0  0  0  0  0  0  0  0  0  0
   17.9274    1.3195    0.0000 H   0  0  0  0  0  0  0  0  0  0  0  0
   17.0796    1.0958    0.0000 H   0  0  0  0  0  0  0  0  0  0  0  0
   17.3032    0.2480    0.0000 H   0  0  0  0  0  0  0  0  0  0  0  0
   19.6078   -1.9100    0.0000 H   0  0  0  0  0  0  0  0  0  0  0  0
   20.0016   -1.2156    0.0000 H   0  0  0  0  0  0  0  0  0  0  0  0
   16.9074   -1.2156    0.0000 H   0  0  0  0  0  0  0  0  0  0  0  0
   17.3012   -1.9100    0.0000 H   0  0  0  0  0  0  0  0  0  0  0  0
   18.8735    5.6981    0.0000 H   0  0  0  0  0  0  0  0  0  0  0  0
   18.7062    6.4774    0.0000 H   0  0  0  0  0  0  0  0  0  0  0  0
   18.9920   -2.1839    0.0000 H   0  0  0  0  0  0  0  0  0  0  0  0
   16.9106    5.4325    0.0000 H   0  0  0  0  0  0  0  0  0  0  0  0
   16.4346    4.6961    0.0000 H   0  0  0  0  0  0  0  0  0  0  0  0
   17.1710    4.2202    0.0000 H   0  0  0  0  0  0  0  0  0  0  0  0
   17.1067    7.0197    0.0000 H   0  0  0  0  0  0  0  0  0  0  0  0
   17.2741    6.2404    0.0000 H   0  0  0  0  0  0  0  0  0  0  0  0
   18.3776    7.2216    0.0000 H   0  0  0  0  0  0  0  0  0  0  0  0
   17.5885   -2.7549    0.0000 H   0  0  0  0  0  0  0  0  0  0  0  0
   17.8972    8.5534    0.0000 H   0  0  0  0  0  0  0  0  0  0  0  0
   18.9624    7.2719    0.0000 H   0  0  0  0  0  0  0  0  0  0  0  0
   19.5536    7.8065    0.0000 H   0  0  0  0  0  0  0  0  0  0  0  0
   17.5885   -4.9949    0.0000 H   0  0  0  0  0  0  0  0  0  0  0  0
   18.1881    9.1846    0.0000 H   0  0  0  0  0  0  0  0  0  0  0  0
   17.7884    9.9650    0.0000 H   0  0  0  0  0  0  0  0  0  0  0  0
   17.0080    9.5652    0.0000 H   0  0  0  0  0  0  0  0  0  0  0  0
   16.1832    8.8194    0.0000 H   0  0  0  0  0  0  0  0  0  0  0  0
   15.7072    8.0830    0.0000 H   0  0  0  0  0  0  0  0  0  0  0  0
   16.4436    7.6070    0.0000 H   0  0  0  0  0  0  0  0  0  0  0  0
   19.8365    8.6528    0.0000 H   0  0  0  0  0  0  0  0  0  0  0  0
   19.4368    9.4332    0.0000 H   0  0  0  0  0  0  0  0  0  0  0  0
   18.6564    9.0335    0.0000 H   0  0  0  0  0  0  0  0  0  0  0  0
   16.1855   -5.1849    0.0000 H   0  0  0  0  0  0  0  0  0  0  0  0
   15.8564   -2.7549    0.0000 H   0  0  0  0  0  0  0  0  0  0  0  0
   15.3195   -4.0649    0.0000 H   0  0  0  0  0  0  0  0  0  0  0  0
   18.4545   -5.4949    0.0000 H   0  0  0  0  0  0  0  0  0  0  0  0
   15.3889   -2.4000    0.0000 H   0  0  0  0  0  0  0  0  0  0  0  0
   14.5919   -2.4000    0.0000 H   0  0  0  0  0  0  0  0  0  0  0  0
   16.1855   -6.1849    0.0000 H   0  0  0  0  0  0  0  0  0  0  0  0
   14.9904   -5.4949    0.0000 H   0  0  0  0  0  0  0  0  0  0  0  0
   11.9938   -3.8498    0.0000 H   0  0  0  0  0  0  0  0  0  0  0  0
   12.7908   -3.8498    0.0000 H   0  0  0  0  0  0  0  0  0  0  0  0
   11.9248   -2.4000    0.0000 H   0  0  0  0  0  0  0  0  0  0  0  0
   11.1278   -2.4000    0.0000 H   0  0  0  0  0  0  0  0  0  0  0  0
   10.2617   -3.8498    0.0000 H   0  0  0  0  0  0  0  0  0  0  0  0
   11.0588   -3.8498    0.0000 H   0  0  0  0  0  0  0  0  0  0  0  0
   10.1928   -2.4000    0.0000 H   0  0  0  0  0  0  0  0  0  0  0  0
    9.3957   -2.4000    0.0000 H   0  0  0  0  0  0  0  0  0  0  0  0
    8.5297   -3.8498    0.0000 H   0  0  0  0  0  0  0  0  0  0  0  0
    9.3267   -3.8498    0.0000 H   0  0  0  0  0  0  0  0  0  0  0  0
    8.4607   -2.4000    0.0000 H   0  0  0  0  0  0  0  0  0  0  0  0
    7.6636   -2.4000    0.0000 H   0  0  0  0  0  0  0  0  0  0  0  0
    6.7976   -3.8498    0.0000 H   0  0  0  0  0  0  0  0  0  0  0  0
    7.5947   -3.8498    0.0000 H   0  0  0  0  0  0  0  0  0  0  0  0
    6.3301   -2.2549    0.0000 H   0  0  0  0  0  0  0  0  0  0  0  0
    4.9272   -3.0649    0.0000 H   0  0  0  0  0  0  0  0  0  0  0  0
    5.6762   -4.9575    0.0000 H   0  0  0  0  0  0  0  0  0  0  0  0
    6.0747   -4.2672    0.0000 H   0  0  0  0  0  0  0  0  0  0  0  0
    4.3860   -4.2923    0.0000 H   0  0  0  0  0  0  0  0  0  0  0  0
    3.9875   -4.9826    0.0000 H   0  0  0  0  0  0  0  0  0  0  0  0
    4.8101   -6.4575    0.0000 H   0  0  0  0  0  0  0  0  0  0  0  0
    5.2087   -5.7672    0.0000 H   0  0  0  0  0  0  0  0  0  0  0  0
    3.5200   -5.7923    0.0000 H   0  0  0  0  0  0  0  0  0  0  0  0
    3.1215   -6.4826    0.0000 H   0  0  0  0  0  0  0  0  0  0  0  0
    3.9441   -7.9575    0.0000 H   0  0  0  0  0  0  0  0  0  0  0  0
    4.3426   -7.2672    0.0000 H   0  0  0  0  0  0  0  0  0  0  0  0
    2.6540   -7.2923    0.0000 H   0  0  0  0  0  0  0  0  0  0  0  0
    2.2554   -7.9826    0.0000 H   0  0  0  0  0  0  0  0  0  0  0  0
    3.0781   -9.4575    0.0000 H   0  0  0  0  0  0  0  0  0  0  0  0
    3.4766   -8.7672    0.0000 H   0  0  0  0  0  0  0  0  0  0  0  0
    1.6900   -8.8380    0.0000 H   0  0  0  0  0  0  0  0  0  0  0  0
    1.4631   -9.6849    0.0000 H   0  0  0  0  0  0  0  0  0  0  0  0
    2.3100   -9.9118    0.0000 H   0  0  0  0  0  0  0  0  0  0  0  0
 28  1  1  1  0  0  0
 32  1  1  1  0  0  0
  2 32  1  0  0  0  0
  2 40  1  0  0  0  0
 35  3  1  6  0  0  0
  3115  1  0  0  0  0
 39  4  1  1  0  0  0
  4118  1  0  0  0  0
 41  5  1  6  0  0  0
  5119  1  0  0  0  0
  6 42  1  0  0  0  0
  6 43  1  0  0  0  0
  7 43  2  0  0  0  0
  8  9  1  0  0  0  0
  8 12  1  0  0  0  0
  8 13  1  0  0  0  0
  8 20  1  1  0  0  0
  9 10  1  0  0  0  0
  9 15  1  0  0  0  0
  9 61  1  6  0  0  0
 10 11  1  0  0  0  0
 10 18  1  0  0  0  0
 10 62  1  1  0  0  0
 11 14  1  0  0  0  0
 11 16  1  0  0  0  0
 11 63  1  6  0  0  0
 12 17  1  0  0  0  0
 12 19  1  0  0  0  0
 12 64  1  6  0  0  0
 13 16  1  0  0  0  0
 13 65  1  0  0  0  0
 13 66  1  0  0  0  0
 14 21  1  0  0  0  0
 14 22  1  0  0  0  0
 14 24  1  1  0  0  0
 15 17  1  0  0  0  0
 15 67  1  0  0  0  0
 15 68  1  0  0  0  0
 16 69  1  0  0  0  0
 16 70  1  0  0  0  0
 17 71  1  0  0  0  0
 17 72  1  0  0  0  0
 18 23  1  0  0  0  0
 18 73  1  0  0  0  0
 18 74  1  0  0  0  0
 19 27  1  0  0  0  0
 19 29  1  6  0  0  0
 19 75  1  0  0  0  0
 20 76  1  0  0  0  0
 20 77  1  0  0  0  0
 20 78  1  0  0  0  0
 21 23  2  0  0  0  0
 21 25  1  0  0  0  0
 22 26  1  0  0  0  0
 22 79  1  0  0  0  0
 22 80  1  0  0  0  0
 23 81  1  0  0  0  0
 24 82  1  0  0  0  0
 24 83  1  0  0  0  0
 24 84  1  0  0  0  0
 25 28  1  0  0  0  0
 25 85  1  0  0  0  0
 25 86  1  0  0  0  0
 26 28  1  0  0  0  0
 26 87  1  0  0  0  0
 26 88  1  0  0  0  0
 27 30  1  0  0  0  0
 27 89  1  0  0  0  0
 27 90  1  0  0  0  0
 28 91  1  0  0  0  0
 29 92  1  0  0  0  0
 29 93  1  0  0  0  0
 29 94  1  0  0  0  0
 31 30  1  1  0  0  0
 30 95  1  0  0  0  0
 30 96  1  0  0  0  0
 31 33  1  0  0  0  0
 31 34  1  0  0  0  0
 31 97  1  0  0  0  0
 32 35  1  0  0  0  0
 32 98  1  0  0  0  0
 33 36  1  0  0  0  0
 33 37  1  0  0  0  0
 33 99  1  0  0  0  0
 34 38  1  0  0  0  0
 34100  1  0  0  0  0
 34101  1  0  0  0  0
 35 39  1  0  0  0  0
 35102  1  0  0  0  0
 36103  1  0  0  0  0
 36104  1  0  0  0  0
 36105  1  0  0  0  0
 37106  1  0  0  0  0
 37107  1  0  0  0  0
 37108  1  0  0  0  0
 38109  1  0  0  0  0
 38110  1  0  0  0  0
 38111  1  0  0  0  0
 39 41  1  0  0  0  0
 39112  1  0  0  0  0
 40 41  1  0  0  0  0
 40 42  1  1  0  0  0
 40113  1  0  0  0  0
 41114  1  0  0  0  0
 42116  1  0  0  0  0
 42117  1  0  0  0  0
 43 44  1  0  0  0  0
 44 45  1  0  0  0  0
 44120  1  0  0  0  0
 44121  1  0  0  0  0
 45 46  1  0  0  0  0
 45122  1  0  0  0  0
 45123  1  0  0  0  0
 46 47  1  0  0  0  0
 46124  1  0  0  0  0
 46125  1  0  0  0  0
 47 48  1  0  0  0  0
 47126  1  0  0  0  0
 47127  1  0  0  0  0
 48 49  1  0  0  0  0
 48128  1  0  0  0  0
 48129  1  0  0  0  0
 49 50  1  0  0  0  0
 49130  1  0  0  0  0
 49131  1  0  0  0  0
 50 51  1  0  0  0  0
 50132  1  0  0  0  0
 50133  1  0  0  0  0
 51 52  2  0  0  0  0
 51134  1  0  0  0  0
 52 53  1  0  0  0  0
 52135  1  0  0  0  0
 53 54  1  0  0  0  0
 53136  1  0  0  0  0
 53137  1  0  0  0  0
 54 55  1  0  0  0  0
 54138  1  0  0  0  0
 54139  1  0  0  0  0
 55 56  1  0  0  0  0
 55140  1  0  0  0  0
 55141  1  0  0  0  0
 56 57  1  0  0  0  0
 56142  1  0  0  0  0
 56143  1  0  0  0  0
 57 58  1  0  0  0  0
 57144  1  0  0  0  0
 57145  1  0  0  0  0
 58 59  1  0  0  0  0
 58146  1  0  0  0  0
 58147  1  0  0  0  0
 59 60  1  0  0  0  0
 59148  1  0  0  0  0
 59149  1  0  0  0  0
 60150  1  0  0  0  0
 60151  1  0  0  0  0
 60152  1  0  0  0  0
M  END
> <PUBCHEM_COMPOUND_CID>
6438482

> <PUBCHEM_COMPOUND_CANONICALIZED>
1

> <PUBCHEM_CACTVS_COMPLEXITY>
1330

> <PUBCHEM_CACTVS_HBOND_ACCEPTOR>
7

> <PUBCHEM_CACTVS_HBOND_DONOR>
3

> <PUBCHEM_CACTVS_ROTATABLE_BOND>
26

> <PUBCHEM_CACTVS_SUBSKEYS>
AAADcfB8OAAAAAAAAAAAAAAAAAAAAYAAAAA0YIEAAAAAAGCAAAAAGgAACAAADxSwgAMCCAAABgCIAiDSCAAAAAAgAAAICAEAAAgREBIAAQAiQAAFwAAPAAPI6PyPgAAAAAAAAADAAAQAACAAAQAACAAAAA==

> <PUBCHEM_IUPAC_OPENEYE_NAME>
[(2R,3S,4S,5R,6R)-6-[[(3S,8S,9S,10R,13R,14S,17R)-17-[(1R,4S)-4-ethyl-1,5-dimethyl-hexyl]-10,13-dimethyl-2,3,4,7,8,9,11,12,14,15,16,17-dodecahydro-1H-cyclopenta[a]phenanthren-3-yl]oxy]-3,4,5-trihydroxy-tetrahydropyran-2-yl]methyl (Z)-octadec-9-enoate

> <PUBCHEM_IUPAC_CAS_NAME>
(Z)-9-octadecenoic acid [(2R,3S,4S,5R,6R)-6-[[(3S,8S,9S,10R,13R,14S,17R)-17-[(2R,5S)-5-ethyl-6-methylheptan-2-yl]-10,13-dimethyl-2,3,4,7,8,9,11,12,14,15,16,17-dodecahydro-1H-cyclopenta[a]phenanthren-3-yl]oxy]-3,4,5-trihydroxy-2-oxanyl]methyl ester

> <PUBCHEM_IUPAC_NAME_MARKUP>
[(2<I>R</I>,3<I>S</I>,4<I>S</I>,5<I>R</I>,6<I>R</I>)-6-[[(3<I>S</I>,8<I>S</I>,9<I>S</I>,10<I>R</I>,13<I>R</I>,14<I>S</I>,17<I>R</I>)-17-[(2<I>R</I>,5<I>S</I>)-5-ethyl-6-methylheptan-2-yl]-10,13-dimethyl-2,3,4,7,8,9,11,12,14,15,16,17-dodecahydro-1<I>H</I>-cyclopenta[a]phenanthren-3-yl]oxy]-3,4,5-trihydroxyoxan-2-yl]methyl (<I>Z</I>)-octadec-9-enoate

> <PUBCHEM_IUPAC_NAME>
[(2R,3S,4S,5R,6R)-6-[[(3S,8S,9S,10R,13R,14S,17R)-17-[(2R,5S)-5-ethyl-6-methylheptan-2-yl]-10,13-dimethyl-2,3,4,7,8,9,11,12,14,15,16,17-dodecahydro-1H-cyclopenta[a]phenanthren-3-yl]oxy]-3,4,5-trihydroxyoxan-2-yl]methyl (Z)-octadec-9-enoate

> <PUBCHEM_IUPAC_SYSTEMATIC_NAME>
[(2R,3S,4S,5R,6R)-6-[[(3S,8S,9S,10R,13R,14S,17R)-17-[(2R,5S)-5-ethyl-6-methyl-heptan-2-yl]-10,13-dimethyl-2,3,4,7,8,9,11,12,14,15,16,17-dodecahydro-1H-cyclopenta[a]phenanthren-3-yl]oxy]-3,4,5-tris(oxidanyl)oxan-2-yl]methyl (Z)-octadec-9-enoate

> <PUBCHEM_IUPAC_TRADITIONAL_NAME>
(Z)-octadec-9-enoic acid [(2R,3S,4S,5R,6R)-6-[[(3S,8S,9S,10R,13R,14S,17R)-17-[(1R,4S)-4-ethyl-1,5-dimethyl-hexyl]-10,13-dimethyl-2,3,4,7,8,9,11,12,14,15,16,17-dodecahydro-1H-cyclopenta[a]phenanthren-3-yl]oxy]-3,4,5-trihydroxy-tetrahydropyran-2-yl]methyl ester

> <PUBCHEM_IUPAC_INCHI>
InChI=1S/C53H92O7/c1-8-10-11-12-13-14-15-16-17-18-19-20-21-22-23-24-47(54)58-36-46-48(55)49(56)50(57)51(60-46)59-41-31-33-52(6)40(35-41)27-28-42-44-30-29-43(53(44,7)34-32-45(42)52)38(5)25-26-39(9-2)37(3)4/h16-17,27,37-39,41-46,48-51,55-57H,8-15,18-26,28-36H2,1-7H3/b17-16-/t38-,39+,41+,42+,43-,44+,45+,46-,48-,49+,50-,51-,52+,53-/m1/s1

> <PUBCHEM_IUPAC_INCHIKEY>
MEEONOMPSMYAQO-JXJRCNQOSA-N

> <PUBCHEM_XLOGP3_AA>
15.2

> <PUBCHEM_EXACT_MASS>
840.684305

> <PUBCHEM_MOLECULAR_FORMULA>
C53H92O7

> <PUBCHEM_MOLECULAR_WEIGHT>
841.3

> <PUBCHEM_OPENEYE_CAN_SMILES>
CCCCCCCCC=CCCCCCCCC(=O)OCC1C(C(C(C(O1)OC2CCC3(C4CCC5(C(C4CC=C3C2)CCC5C(C)CCC(CC)C(C)C)C)C)O)O)O

> <PUBCHEM_OPENEYE_ISO_SMILES>
CCCCCCCC/C=C\CCCCCCCC(=O)OC[C@@H]1[C@H]([C@@H]([C@H]([C@@H](O1)O[C@H]2CC[C@@]3([C@H]4CC[C@]5([C@H]([C@@H]4CC=C3C2)CC[C@@H]5[C@H](C)CC[C@H](CC)C(C)C)C)C)O)O)O

> <PUBCHEM_CACTVS_TPSA>
105

> <PUBCHEM_MONOISOTOPIC_WEIGHT>
840.684305

> <PUBCHEM_TOTAL_CHARGE>
0

> <PUBCHEM_HEAVY_ATOM_COUNT>
60

> <PUBCHEM_ATOM_DEF_STEREO_COUNT>
14

> <PUBCHEM_ATOM_UDEF_STEREO_COUNT>
0

> <PUBCHEM_BOND_DEF_STEREO_COUNT>
1

> <PUBCHEM_BOND_UDEF_STEREO_COUNT>
0

> <PUBCHEM_ISOTOPIC_ATOM_COUNT>
0

> <PUBCHEM_COMPONENT_COUNT>
1

> <PUBCHEM_CACTVS_TAUTO_COUNT>
-1

> <PUBCHEM_COORDINATE_TYPE>
1
5
255

> <PUBCHEM_BONDANNOTATIONS>
28  1  5
32  1  5
10  62  5
11  63  6
12  64  6
14  24  5
19  29  6
35  3  6
31  30  5
39  4  5
40  42  5
41  5  6
8  20  5
9  61  6

$$$$
