69988
  -OEChem-11202009043D

 18 18  0     0  0  0  0  0  0999 V2000
    2.0331   -0.6880   -0.0006 O   0  0  0  0  0  0  0  0  0  0  0  0
    1.6360    2.0644   -0.0010 O   0  0  0  0  0  0  0  0  0  0  0  0
   -2.6872   -1.3565   -0.0011 O   0  0  0  0  0  0  0  0  0  0  0  0
    0.7734   -0.1695    0.0009 C   0  0  0  0  0  0  0  0  0  0  0  0
    0.5742    1.2111    0.0005 C   0  0  0  0  0  0  0  0  0  0  0  0
   -0.3225   -1.0323    0.0008 C   0  0  0  0  0  0  0  0  0  0  0  0
   -1.6178   -0.5146    0.0003 C   0  0  0  0  0  0  0  0  0  0  0  0
   -0.7211    1.7289    0.0002 C   0  0  0  0  0  0  0  0  0  0  0  0
   -1.8170    0.8660    0.0000 C   0  0  0  0  0  0  0  0  0  0  0  0
    2.1489   -2.1096   -0.0001 C   0  0  0  0  0  0  0  0  0  0  0  0
   -0.2290   -2.1130    0.0006 H   0  0  0  0  0  0  0  0  0  0  0  0
   -0.8908    2.8022   -0.0003 H   0  0  0  0  0  0  0  0  0  0  0  0
   -2.8236    1.2751   -0.0007 H   0  0  0  0  0  0  0  0  0  0  0  0
    1.7273   -2.5496   -0.9103 H   0  0  0  0  0  0  0  0  0  0  0  0
    1.7282   -2.5490    0.9108 H   0  0  0  0  0  0  0  0  0  0  0  0
    3.2183   -2.3451   -0.0006 H   0  0  0  0  0  0  0  0  0  0  0  0
    1.3070    2.9797   -0.0013 H   0  0  0  0  0  0  0  0  0  0  0  0
   -2.3693   -2.2755   -0.0010 H   0  0  0  0  0  0  0  0  0  0  0  0
  1  4  1  0  0  0  0
  1 10  1  0  0  0  0
  2  5  1  0  0  0  0
  2 17  1  0  0  0  0
  3  7  1  0  0  0  0
  3 18  1  0  0  0  0
  4  5  2  0  0  0  0
  4  6  1  0  0  0  0
  5  8  1  0  0  0  0
  6  7  2  0  0  0  0
  6 11  1  0  0  0  0
  7  9  1  0  0  0  0
  8  9  2  0  0  0  0
  8 12  1  0  0  0  0
  9 13  1  0  0  0  0
 10 14  1  0  0  0  0
 10 15  1  0  0  0  0
 10 16  1  0  0  0  0
M  END
> <PUBCHEM_COMPOUND_CID>
69988

> <PUBCHEM_CONFORMER_RMSD>
0.4

> <PUBCHEM_CONFORMER_DIVERSEORDER>
3
1
2

> <PUBCHEM_MMFF94_PARTIAL_CHARGES>
15
1 -0.36
10 0.28
11 0.15
12 0.15
13 0.15
17 0.45
18 0.45
2 -0.53
3 -0.53
4 0.08
5 0.08
6 -0.15
7 0.08
8 -0.15
9 -0.15

> <PUBCHEM_EFFECTIVE_ROTOR_COUNT>
1

> <PUBCHEM_PHARMACOPHORE_FEATURES>
4
1 1 acceptor
1 2 donor
1 3 donor
6 4 5 6 7 8 9 rings

> <PUBCHEM_HEAVY_ATOM_COUNT>
10

> <PUBCHEM_ATOM_DEF_STEREO_COUNT>
0

> <PUBCHEM_ATOM_UDEF_STEREO_COUNT>
0

> <PUBCHEM_BOND_DEF_STEREO_COUNT>
0

> <PUBCHEM_BOND_UDEF_STEREO_COUNT>
0

> <PUBCHEM_ISOTOPIC_ATOM_COUNT>
0

> <PUBCHEM_COMPONENT_COUNT>
1

> <PUBCHEM_CACTVS_TAUTO_COUNT>
7

> <PUBCHEM_CONFORMER_ID>
0001116400000003

> <PUBCHEM_MMFF94_ENERGY>
32.6262

> <PUBCHEM_FEATURE_SELFOVERLAP>
20.297

> <PUBCHEM_SHAPE_FINGERPRINT>
14128692 85 18411427189200516598
161256 15 18338521935958623909
16945 1 18410856568261476613
18185500 45 18191870024196710131
193761 8 18410575067626011301
20645477 70 18266733766005943823
20871998 184 18057035796628336094
21040471 1 17257652746838195557
23552423 10 18334581256177588695
241688 4 18336544911025499745
2748010 2 18410007749748677501

> <PUBCHEM_SHAPE_MULTIPOLES>
188.19
3.05
2.26
0.59
0.72
0.53
0
-1.57
0
0.16
0
-0.01
0
0

> <PUBCHEM_SHAPE_SELFOVERLAP>
392.102

> <PUBCHEM_SHAPE_VOLUME>
107.7

> <PUBCHEM_COORDINATE_TYPE>
2
5
10

$$$$
