16251
  -OEChem-11202009043D

 21 21  0     0  0  0  0  0  0999 V2000
   -0.5601    2.0835    0.0000 O   0  0  0  0  0  0  0  0  0  0  0  0
   -2.3119   -0.0736    0.0000 O   0  0  0  0  0  0  0  0  0  0  0  0
    3.1339   -0.9317   -0.0003 O   0  0  0  0  0  0  0  0  0  0  0  0
   -0.0855    0.8066    0.0000 C   0  0  0  0  0  0  0  0  0  0  0  0
   -0.9648   -0.2763    0.0000 C   0  0  0  0  0  0  0  0  0  0  0  0
    1.2920    0.5864    0.0001 C   0  0  0  0  0  0  0  0  0  0  0  0
   -0.4669   -1.5792    0.0001 C   0  0  0  0  0  0  0  0  0  0  0  0
    1.7899   -0.7166    0.0001 C   0  0  0  0  0  0  0  0  0  0  0  0
    0.9104   -1.7993    0.0002 C   0  0  0  0  0  0  0  0  0  0  0  0
    0.4050    3.1337    0.0000 C   0  0  0  0  0  0  0  0  0  0  0  0
   -3.1420   -1.2335   -0.0002 C   0  0  0  0  0  0  0  0  0  0  0  0
    2.0225    1.3884    0.0000 H   0  0  0  0  0  0  0  0  0  0  0  0
   -1.0895   -2.4672    0.0002 H   0  0  0  0  0  0  0  0  0  0  0  0
    1.2936   -2.8163    0.0001 H   0  0  0  0  0  0  0  0  0  0  0  0
    1.0140    3.1228   -0.9105 H   0  0  0  0  0  0  0  0  0  0  0  0
    1.0139    3.1228    0.9105 H   0  0  0  0  0  0  0  0  0  0  0  0
   -0.1480    4.0788    0.0000 H   0  0  0  0  0  0  0  0  0  0  0  0
   -3.0055   -1.8275    0.9100 H   0  0  0  0  0  0  0  0  0  0  0  0
   -3.0053   -1.8274   -0.9103 H   0  0  0  0  0  0  0  0  0  0  0  0
   -4.1806   -0.8865   -0.0003 H   0  0  0  0  0  0  0  0  0  0  0  0
    3.5938   -0.0748   -0.0004 H   0  0  0  0  0  0  0  0  0  0  0  0
  1  4  1  0  0  0  0
  1 10  1  0  0  0  0
  2  5  1  0  0  0  0
  2 11  1  0  0  0  0
  3  8  1  0  0  0  0
  3 21  1  0  0  0  0
  4  5  2  0  0  0  0
  4  6  1  0  0  0  0
  5  7  1  0  0  0  0
  6  8  2  0  0  0  0
  6 12  1  0  0  0  0
  7  9  2  0  0  0  0
  7 13  1  0  0  0  0
  8  9  1  0  0  0  0
  9 14  1  0  0  0  0
 10 15  1  0  0  0  0
 10 16  1  0  0  0  0
 10 17  1  0  0  0  0
 11 18  1  0  0  0  0
 11 19  1  0  0  0  0
 11 20  1  0  0  0  0
M  END
> <PUBCHEM_COMPOUND_CID>
16251

> <PUBCHEM_CONFORMER_RMSD>
0.4

> <PUBCHEM_CONFORMER_DIVERSEORDER>
8
9
7
4
5
3
6
1
2

> <PUBCHEM_MMFF94_PARTIAL_CHARGES>
15
1 -0.36
10 0.28
11 0.28
12 0.15
13 0.15
14 0.15
2 -0.36
21 0.45
3 -0.53
4 0.08
5 0.08
6 -0.15
7 -0.15
8 0.08
9 -0.15

> <PUBCHEM_EFFECTIVE_ROTOR_COUNT>
2

> <PUBCHEM_PHARMACOPHORE_FEATURES>
4
1 1 acceptor
1 2 acceptor
1 3 donor
6 4 5 6 7 8 9 rings

> <PUBCHEM_HEAVY_ATOM_COUNT>
11

> <PUBCHEM_ATOM_DEF_STEREO_COUNT>
0

> <PUBCHEM_ATOM_UDEF_STEREO_COUNT>
0

> <PUBCHEM_BOND_DEF_STEREO_COUNT>
0

> <PUBCHEM_BOND_UDEF_STEREO_COUNT>
0

> <PUBCHEM_ISOTOPIC_ATOM_COUNT>
0

> <PUBCHEM_COMPONENT_COUNT>
1

> <PUBCHEM_CACTVS_TAUTO_COUNT>
3

> <PUBCHEM_CONFORMER_ID>
00003F7B00000008

> <PUBCHEM_MMFF94_ENERGY>
45.1957

> <PUBCHEM_FEATURE_SELFOVERLAP>
20.301

> <PUBCHEM_SHAPE_FINGERPRINT>
1 1 17833833050793974149
12032990 46 18410863161063188918
12423570 1 17831602884835885040
13380535 76 17545311342704739491
16945 1 17978509737081795238
193761 8 17617940236002125543
21040471 1 17257652747006935649
23552423 10 17900832552210741854
241688 4 18339361868315989312
2748010 2 18411691080417762444
528862 383 18047744090233992553
7364860 26 18053385684327552269

> <PUBCHEM_SHAPE_MULTIPOLES>
208.77
3.37
2.77
0.59
1.98
2.18
0
-1.43
0
-1.41
0
0
-0.01
0

> <PUBCHEM_SHAPE_SELFOVERLAP>
431.134

> <PUBCHEM_SHAPE_VOLUME>
120.8

> <PUBCHEM_COORDINATE_TYPE>
2
5
10

$$$$
