8973
  -OEChem-11202009093D

 27 26  0     1  0  0  0  0  0999 V2000
    0.4789    1.5447   -0.7921 O   0  0  0  0  0  0  0  0  0  0  0  0
   -0.1639   -1.2736   -0.8447 O   0  0  0  0  0  0  0  0  0  0  0  0
   -2.3061    0.8564    1.1739 O   0  0  0  0  0  0  0  0  0  0  0  0
    2.1565   -0.5099    1.7158 O   0  0  0  0  0  0  0  0  0  0  0  0
   -4.2251   -0.3996   -0.3553 O   0  0  0  0  0  0  0  0  0  0  0  0
    2.8428   -1.8481   -0.4800 O   0  0  0  0  0  0  0  0  0  0  0  0
   -0.4791   -0.3916    0.2380 C   0  0  1  0  0  0  0  0  0  0  0  0
    0.5998    0.6989    0.3581 C   0  0  1  0  0  0  0  0  0  0  0  0
   -1.9100    0.1172    0.0094 C   0  0  1  0  0  0  0  0  0  0  0  0
    2.0530    0.2271    0.5022 C   0  0  2  0  0  0  0  0  0  0  0  0
   -2.9393   -0.9906   -0.1871 C   0  0  0  0  0  0  0  0  0  0  0  0
    2.5201   -0.6727   -0.6234 C   0  0  0  0  0  0  0  0  0  0  0  0
    1.3724    2.6418   -0.7149 C   0  0  0  0  0  0  0  0  0  0  0  0
   -0.4544   -0.9965    1.1526 H   0  0  0  0  0  0  0  0  0  0  0  0
    0.3438    1.2941    1.2458 H   0  0  0  0  0  0  0  0  0  0  0  0
   -1.9583    0.8030   -0.8434 H   0  0  0  0  0  0  0  0  0  0  0  0
    2.7640    1.0536    0.5796 H   0  0  0  0  0  0  0  0  0  0  0  0
   -2.9945   -1.6413    0.6913 H   0  0  0  0  0  0  0  0  0  0  0  0
   -2.7249   -1.6039   -1.0672 H   0  0  0  0  0  0  0  0  0  0  0  0
   -0.1743   -0.7477   -1.6629 H   0  0  0  0  0  0  0  0  0  0  0  0
    2.5704   -0.1979   -1.6184 H   0  0  0  0  0  0  0  0  0  0  0  0
   -2.2750    0.2533    1.9363 H   0  0  0  0  0  0  0  0  0  0  0  0
    3.0983   -0.7031    1.8630 H   0  0  0  0  0  0  0  0  0  0  0  0
    2.3693    2.3655   -1.0696 H   0  0  0  0  0  0  0  0  0  0  0  0
    1.4147    3.0764    0.2893 H   0  0  0  0  0  0  0  0  0  0  0  0
    1.0016    3.4159   -1.3940 H   0  0  0  0  0  0  0  0  0  0  0  0
   -4.1900    0.1550   -1.1532 H   0  0  0  0  0  0  0  0  0  0  0  0
  1  8  1  0  0  0  0
  1 13  1  0  0  0  0
  2  7  1  0  0  0  0
  2 20  1  0  0  0  0
  3  9  1  0  0  0  0
  3 22  1  0  0  0  0
  4 10  1  0  0  0  0
  4 23  1  0  0  0  0
  5 11  1  0  0  0  0
  5 27  1  0  0  0  0
  6 12  2  0  0  0  0
  7  8  1  0  0  0  0
  7  9  1  0  0  0  0
  7 14  1  0  0  0  0
  8 10  1  0  0  0  0
  8 15  1  0  0  0  0
  9 11  1  0  0  0  0
  9 16  1  0  0  0  0
 10 12  1  0  0  0  0
 10 17  1  0  0  0  0
 11 18  1  0  0  0  0
 11 19  1  0  0  0  0
 12 21  1  0  0  0  0
 13 24  1  0  0  0  0
 13 25  1  0  0  0  0
 13 26  1  0  0  0  0
M  END
> <PUBCHEM_COMPOUND_CID>
8973

> <PUBCHEM_CONFORMER_RMSD>
0.6

> <PUBCHEM_CONFORMER_DIVERSEORDER>
1
5
10
11
9
29
20
26
27
7
2
14
6
3
23
8
4
13
25
31
24
17
28
21
16
18
22
12
19
30
15

> <PUBCHEM_MMFF94_PARTIAL_CHARGES>
18
1 -0.56
10 0.34
11 0.28
12 0.45
13 0.28
2 -0.68
20 0.4
21 0.06
22 0.4
23 0.4
27 0.4
3 -0.68
4 -0.68
5 -0.68
6 -0.57
7 0.28
8 0.28
9 0.28

> <PUBCHEM_EFFECTIVE_ROTOR_COUNT>
6

> <PUBCHEM_PHARMACOPHORE_FEATURES>
10
1 1 acceptor
1 2 acceptor
1 2 donor
1 3 acceptor
1 3 donor
1 4 acceptor
1 4 donor
1 5 acceptor
1 5 donor
1 6 acceptor

> <PUBCHEM_HEAVY_ATOM_COUNT>
13

> <PUBCHEM_ATOM_DEF_STEREO_COUNT>
4

> <PUBCHEM_ATOM_UDEF_STEREO_COUNT>
0

> <PUBCHEM_BOND_DEF_STEREO_COUNT>
0

> <PUBCHEM_BOND_UDEF_STEREO_COUNT>
0

> <PUBCHEM_ISOTOPIC_ATOM_COUNT>
0

> <PUBCHEM_COMPONENT_COUNT>
1

> <PUBCHEM_CACTVS_TAUTO_COUNT>
4

> <PUBCHEM_CONFORMER_ID>
0000230D00000001

> <PUBCHEM_MMFF94_ENERGY>
30.9555

> <PUBCHEM_FEATURE_SELFOVERLAP>
50.772

> <PUBCHEM_SHAPE_FINGERPRINT>
10219947 1 18412547600049575007
11769659 78 18060415790008962943
12326174 3 18041553767066509848
12423570 1 12583760982433933880
12932741 1 17241334697570849409
12932764 1 17385717032802543731
13380536 305 18335707194802589966
14344429 50 17967808388003501340
14993402 34 18410581690502219502
15219459 52 18339650034878179174
15477762 27 18410856598426611087
161256 15 18187079585421543956
16945 1 18261401060820500984
17041 50 18261388927770096117
170605 34 17899134094218317549
18186145 218 17968370234799206535
20339313 130 18408047329174852681
20559304 39 18201158866116632689
20645477 70 18262232352363445799
20653091 64 18262801881679068640
20711985 327 18261100873056514144
20711985 344 17899979326918604376
207724 885 18337967696193513243
20871998 22 18336820901671682658
21524375 3 17395293976280216588
23552423 10 18339926038188010351
3248919 1 18341331192874015579
5084963 1 18343867718775189499
528862 383 18189893299953520484
57812782 119 16917064430388962531
7364860 26 18269557307000951024
74978 22 18261116309116163307
81539 233 17897727810478114356

> <PUBCHEM_SHAPE_MULTIPOLES>
232.32
5.11
1.91
1.07
4.53
1.03
-0.32
-1.65
0.23
-1.47
0.61
-0.38
-0.02
-0.34

> <PUBCHEM_SHAPE_SELFOVERLAP>
442.643

> <PUBCHEM_SHAPE_VOLUME>
141.8

> <PUBCHEM_COORDINATE_TYPE>
2
5
10

$$$$
