227613
  -OEChem-09112010043D

 56 60  0     1  0  0  0  0  0999 V2000
   -4.1582   -0.4080   -0.1604 O   0  0  0  0  0  0  0  0  0  0  0  0
   -3.7101    1.9124   -0.2376 O   0  0  0  0  0  0  0  0  0  0  0  0
    2.7206    0.7335    1.2149 N   0  0  1  0  0  0  0  0  0  0  0  0
   -1.5278    1.1237   -0.0216 N   0  0  0  0  0  0  0  0  0  0  0  0
    0.5166    0.1560    0.8510 C   0  0  2  0  0  0  0  0  0  0  0  0
    1.9424   -0.3226    0.5381 C   0  0  1  0  0  0  0  0  0  0  0  0
    2.3387   -0.4262   -0.9516 C   0  0  1  0  0  0  0  0  0  0  0  0
   -0.0380    1.2754   -0.0871 C   0  0  1  0  0  0  0  0  0  0  0  0
    0.6452    0.6868    2.3074 C   0  0  0  0  0  0  0  0  0  0  0  0
    1.9006    0.8461   -1.7096 C   0  0  0  0  0  0  0  0  0  0  0  0
    0.4133    1.1411   -1.5563 C   0  0  0  0  0  0  0  0  0  0  0  0
    2.1422    0.8644    2.5463 C   0  0  0  0  0  0  0  0  0  0  0  0
    3.8808   -0.6069   -1.0523 C   0  0  0  0  0  0  0  0  0  0  0  0
   -0.6157   -0.8380    0.7892 C   0  0  0  0  0  0  0  0  0  0  0  0
    1.7001   -1.6722   -1.6034 C   0  0  0  0  0  0  0  0  0  0  0  0
    4.1508    0.4560    1.2266 C   0  0  0  0  0  0  0  0  0  0  0  0
    4.6686    0.3975   -0.2091 C   0  0  0  0  0  0  0  0  0  0  0  0
   -1.7933   -0.2185    0.3472 C   0  0  0  0  0  0  0  0  0  0  0  0
   -0.6187   -2.1672    1.1915 C   0  0  0  0  0  0  0  0  0  0  0  0
    2.1432   -1.8118   -3.0403 C   0  0  0  0  0  0  0  0  0  0  0  0
   -2.4914    2.0812   -0.3049 C   0  0  0  0  0  0  0  0  0  0  0  0
   -2.9928   -0.9144    0.3139 C   0  0  0  0  0  0  0  0  0  0  0  0
   -1.8179   -2.8778    1.1425 C   0  0  0  0  0  0  0  0  0  0  0  0
   -2.9961   -2.2547    0.7105 C   0  0  0  0  0  0  0  0  0  0  0  0
   -1.9667    3.4414   -0.6956 C   0  0  0  0  0  0  0  0  0  0  0  0
   -4.4365   -0.5973   -1.5493 C   0  0  0  0  0  0  0  0  0  0  0  0
    2.1389   -1.2862    1.0311 H   0  0  0  0  0  0  0  0  0  0  0  0
    0.2518    2.2691    0.2715 H   0  0  0  0  0  0  0  0  0  0  0  0
    0.2463   -0.0177    3.0479 H   0  0  0  0  0  0  0  0  0  0  0  0
    0.1136    1.6354    2.4481 H   0  0  0  0  0  0  0  0  0  0  0  0
    2.1664    0.8171   -2.7702 H   0  0  0  0  0  0  0  0  0  0  0  0
    2.4433    1.7173   -1.3204 H   0  0  0  0  0  0  0  0  0  0  0  0
    0.1934    2.0715   -2.0909 H   0  0  0  0  0  0  0  0  0  0  0  0
   -0.1719    0.3726   -2.0752 H   0  0  0  0  0  0  0  0  0  0  0  0
    2.3647    1.8397    2.9904 H   0  0  0  0  0  0  0  0  0  0  0  0
    2.5015    0.0829    3.2275 H   0  0  0  0  0  0  0  0  0  0  0  0
    4.2318   -0.4976   -2.0844 H   0  0  0  0  0  0  0  0  0  0  0  0
    4.1577   -1.6169   -0.7213 H   0  0  0  0  0  0  0  0  0  0  0  0
    0.6079   -1.6350   -1.5759 H   0  0  0  0  0  0  0  0  0  0  0  0
    1.9870   -2.5766   -1.0520 H   0  0  0  0  0  0  0  0  0  0  0  0
    4.3704   -0.4878    1.7417 H   0  0  0  0  0  0  0  0  0  0  0  0
    4.6840    1.2519    1.7595 H   0  0  0  0  0  0  0  0  0  0  0  0
    5.7287    0.1183   -0.2050 H   0  0  0  0  0  0  0  0  0  0  0  0
    4.6124    1.3935   -0.6649 H   0  0  0  0  0  0  0  0  0  0  0  0
    0.2820   -2.6490    1.5559 H   0  0  0  0  0  0  0  0  0  0  0  0
    1.8322   -0.9836   -3.6802 H   0  0  0  0  0  0  0  0  0  0  0  0
    3.2165   -1.9783   -3.1568 H   0  0  0  0  0  0  0  0  0  0  0  0
    1.6635   -2.7037   -3.4628 H   0  0  0  0  0  0  0  0  0  0  0  0
   -1.8418   -3.9194    1.4508 H   0  0  0  0  0  0  0  0  0  0  0  0
   -3.9169   -2.8327    0.6787 H   0  0  0  0  0  0  0  0  0  0  0  0
   -2.8029    4.1459   -0.7521 H   0  0  0  0  0  0  0  0  0  0  0  0
   -1.4963    3.3995   -1.6790 H   0  0  0  0  0  0  0  0  0  0  0  0
   -1.2656    3.8201    0.0513 H   0  0  0  0  0  0  0  0  0  0  0  0
   -3.6105   -0.2312   -2.1677 H   0  0  0  0  0  0  0  0  0  0  0  0
   -5.3393   -0.0329   -1.7981 H   0  0  0  0  0  0  0  0  0  0  0  0
   -4.6180   -1.6563   -1.7572 H   0  0  0  0  0  0  0  0  0  0  0  0
  1 22  1  0  0  0  0
  1 26  1  0  0  0  0
  2 21  2  0  0  0  0
  3  6  1  0  0  0  0
  3 12  1  0  0  0  0
  3 16  1  0  0  0  0
  4  8  1  0  0  0  0
  4 18  1  0  0  0  0
  4 21  1  0  0  0  0
  5  6  1  0  0  0  0
  5  8  1  0  0  0  0
  5  9  1  0  0  0  0
  5 14  1  0  0  0  0
  6  7  1  0  0  0  0
  6 27  1  0  0  0  0
  7 10  1  0  0  0  0
  7 13  1  0  0  0  0
  7 15  1  0  0  0  0
  8 11  1  0  0  0  0
  8 28  1  0  0  0  0
  9 12  1  0  0  0  0
  9 29  1  0  0  0  0
  9 30  1  0  0  0  0
 10 11  1  0  0  0  0
 10 31  1  0  0  0  0
 10 32  1  0  0  0  0
 11 33  1  0  0  0  0
 11 34  1  0  0  0  0
 12 35  1  0  0  0  0
 12 36  1  0  0  0  0
 13 17  1  0  0  0  0
 13 37  1  0  0  0  0
 13 38  1  0  0  0  0
 14 18  2  0  0  0  0
 14 19  1  0  0  0  0
 15 20  1  0  0  0  0
 15 39  1  0  0  0  0
 15 40  1  0  0  0  0
 16 17  1  0  0  0  0
 16 41  1  0  0  0  0
 16 42  1  0  0  0  0
 17 43  1  0  0  0  0
 17 44  1  0  0  0  0
 18 22  1  0  0  0  0
 19 23  2  0  0  0  0
 19 45  1  0  0  0  0
 20 46  1  0  0  0  0
 20 47  1  0  0  0  0
 20 48  1  0  0  0  0
 21 25  1  0  0  0  0
 22 24  2  0  0  0  0
 23 24  1  0  0  0  0
 23 49  1  0  0  0  0
 24 50  1  0  0  0  0
 25 51  1  0  0  0  0
 25 52  1  0  0  0  0
 25 53  1  0  0  0  0
 26 54  1  0  0  0  0
 26 55  1  0  0  0  0
 26 56  1  0  0  0  0
M  END
> <PUBCHEM_COMPOUND_CID>
227613

> <PUBCHEM_CONFORMER_RMSD>
0.8

> <PUBCHEM_CONFORMER_DIVERSEORDER>
1

> <PUBCHEM_MMFF94_PARTIAL_CHARGES>
21
1 -0.36
12 0.27
14 -0.14
16 0.27
18 0.12
19 -0.15
2 -0.57
21 0.57
22 0.08
23 -0.15
24 -0.15
25 0.06
26 0.28
3 -0.81
4 -0.48
45 0.15
49 0.15
5 0.14
50 0.15
6 0.27
8 0.3

> <PUBCHEM_EFFECTIVE_ROTOR_COUNT>
4.6

> <PUBCHEM_PHARMACOPHORE_FEATURES>
9
1 1 acceptor
1 2 acceptor
1 20 hydrophobe
1 3 cation
5 3 5 6 9 12 rings
5 4 5 8 14 18 rings
6 14 18 19 22 23 24 rings
6 3 6 7 13 16 17 rings
6 5 6 7 8 10 11 rings

> <PUBCHEM_HEAVY_ATOM_COUNT>
26

> <PUBCHEM_ATOM_DEF_STEREO_COUNT>
4

> <PUBCHEM_ATOM_UDEF_STEREO_COUNT>
0

> <PUBCHEM_BOND_DEF_STEREO_COUNT>
0

> <PUBCHEM_BOND_UDEF_STEREO_COUNT>
0

> <PUBCHEM_ISOTOPIC_ATOM_COUNT>
0

> <PUBCHEM_COMPONENT_COUNT>
1

> <PUBCHEM_CACTVS_TAUTO_COUNT>
1

> <PUBCHEM_CONFORMER_ID>
0003791D00000001

> <PUBCHEM_MMFF94_ENERGY>
104.4718

> <PUBCHEM_FEATURE_SELFOVERLAP>
46.27

> <PUBCHEM_SHAPE_FINGERPRINT>
10366900 7 18202564007569563178
10863032 1 18335701577438982346
11370993 70 18409451349673260206
11578080 2 17843714138560239680
11582403 64 16833118882082372424
11640471 11 16805611373171516758
12035759 4 17676202485469200589
12236239 1 16950274126886324826
12788726 201 18042989707693152733
13140716 1 18043254741772197883
13911987 19 17417818400310376032
13947920 75 17894638033007196302
13965767 371 17171793649194273052
14955137 171 14165605198825618338
15324884 4 17912075354661810442
16752209 62 18186791479352470353
16945 1 18260837015608195315
17349148 13 18260256469358424151
19862831 5 17240483649511132831
20600515 1 18189600795638307721
20691752 17 17678181498972436311
21285901 2 18342746217184091671
21756936 100 16083663225707357892
22112679 90 17458338637371292312
23402539 116 18334569170171376823
23419403 2 17916885512159632702
23526113 38 17987521416098351722
23557571 272 18412549807573243793
23559900 14 18409171022001300514
238 59 17273391938109864148
298252 57 17462315463470262632
350125 39 17901095327120801009
3797600 57 14332559132752912519
474 4 14562813308591164774
57527295 17 17558829477480890941
5895379 119 18261403217131967524
77492 1 16950558891786826720
81228 2 18411707582241445489
9709674 26 18341343209870873718

> <PUBCHEM_SHAPE_MULTIPOLES>
513.37
7.19
2.7
2.28
0.15
0.44
0.34
-0.17
1.24
2.69
0.29
-1.79
-0.51
1.68

> <PUBCHEM_SHAPE_SELFOVERLAP>
1127.223

> <PUBCHEM_SHAPE_VOLUME>
278

> <PUBCHEM_COORDINATE_TYPE>
2
5
10

$$$$
