5574
  -OEChem-09112009423D

 43 45  0     1  0  0  0  0  0999 V2000
   -2.6482    1.1226    1.2881 S   0  0  0  0  0  0  0  0  0  0  0  0
   -0.4474   -0.1408   -0.5076 N   0  0  0  0  0  0  0  0  0  0  0  0
    4.3255   -1.1162    0.5089 N   0  0  0  0  0  0  0  0  0  0  0  0
    1.9156   -0.7047    0.0477 C   0  0  2  0  0  0  0  0  0  0  0  0
    0.7684   -0.8218   -0.9714 C   0  0  0  0  0  0  0  0  0  0  0  0
    3.2330   -1.3446   -0.4308 C   0  0  0  0  0  0  0  0  0  0  0  0
    1.5144   -1.2921    1.4056 C   0  0  0  0  0  0  0  0  0  0  0  0
   -1.6018   -0.9369   -0.2978 C   0  0  0  0  0  0  0  0  0  0  0  0
   -0.3933    1.2693   -0.3688 C   0  0  0  0  0  0  0  0  0  0  0  0
   -2.6783   -0.4643    0.4788 C   0  0  0  0  0  0  0  0  0  0  0  0
   -1.3503    1.9604    0.4004 C   0  0  0  0  0  0  0  0  0  0  0  0
   -1.7446   -2.2153   -0.8802 C   0  0  0  0  0  0  0  0  0  0  0  0
    0.5908    2.0474   -1.0171 C   0  0  0  0  0  0  0  0  0  0  0  0
    4.5833    0.3166    0.6601 C   0  0  0  0  0  0  0  0  0  0  0  0
    5.5377   -1.8070    0.0665 C   0  0  0  0  0  0  0  0  0  0  0  0
   -3.8241   -1.2551    0.6778 C   0  0  0  0  0  0  0  0  0  0  0  0
   -1.2967    3.3598    0.5285 C   0  0  0  0  0  0  0  0  0  0  0  0
   -2.8876   -2.9950   -0.6833 C   0  0  0  0  0  0  0  0  0  0  0  0
    0.6367    3.4384   -0.8904 C   0  0  0  0  0  0  0  0  0  0  0  0
   -3.9270   -2.5157    0.0992 C   0  0  0  0  0  0  0  0  0  0  0  0
   -0.3061    4.0951   -0.1141 C   0  0  0  0  0  0  0  0  0  0  0  0
    2.0923    0.3594    0.2124 H   0  0  0  0  0  0  0  0  0  0  0  0
    1.0699   -0.4471   -1.9573 H   0  0  0  0  0  0  0  0  0  0  0  0
    0.6571   -1.8958   -1.1271 H   0  0  0  0  0  0  0  0  0  0  0  0
    3.4860   -0.9524   -1.4252 H   0  0  0  0  0  0  0  0  0  0  0  0
    3.0691   -2.4238   -0.5501 H   0  0  0  0  0  0  0  0  0  0  0  0
    0.6286   -0.7957    1.8142 H   0  0  0  0  0  0  0  0  0  0  0  0
    2.3033   -1.1742    2.1551 H   0  0  0  0  0  0  0  0  0  0  0  0
    1.2901   -2.3611    1.3198 H   0  0  0  0  0  0  0  0  0  0  0  0
   -1.0138   -2.6404   -1.5600 H   0  0  0  0  0  0  0  0  0  0  0  0
    1.3458    1.6020   -1.6587 H   0  0  0  0  0  0  0  0  0  0  0  0
    5.5055    0.4786    1.2317 H   0  0  0  0  0  0  0  0  0  0  0  0
    3.8048    0.8169    1.2434 H   0  0  0  0  0  0  0  0  0  0  0  0
    4.6988    0.8266   -0.3033 H   0  0  0  0  0  0  0  0  0  0  0  0
    5.3578   -2.8845   -0.0188 H   0  0  0  0  0  0  0  0  0  0  0  0
    6.3421   -1.6829    0.8002 H   0  0  0  0  0  0  0  0  0  0  0  0
    5.8934   -1.4383   -0.9024 H   0  0  0  0  0  0  0  0  0  0  0  0
   -4.6512   -0.8954    1.2866 H   0  0  0  0  0  0  0  0  0  0  0  0
   -2.0286    3.8931    1.1318 H   0  0  0  0  0  0  0  0  0  0  0  0
   -2.9671   -3.9700   -1.1555 H   0  0  0  0  0  0  0  0  0  0  0  0
    1.4087    4.0041   -1.4039 H   0  0  0  0  0  0  0  0  0  0  0  0
   -4.8177   -3.1167    0.2542 H   0  0  0  0  0  0  0  0  0  0  0  0
   -0.2743    5.1754   -0.0115 H   0  0  0  0  0  0  0  0  0  0  0  0
  1 10  1  0  0  0  0
  1 11  1  0  0  0  0
  2  5  1  0  0  0  0
  2  8  1  0  0  0  0
  2  9  1  0  0  0  0
  3  6  1  0  0  0  0
  3 14  1  0  0  0  0
  3 15  1  0  0  0  0
  4  5  1  0  0  0  0
  4  6  1  0  0  0  0
  4  7  1  0  0  0  0
  4 22  1  0  0  0  0
  5 23  1  0  0  0  0
  5 24  1  0  0  0  0
  6 25  1  0  0  0  0
  6 26  1  0  0  0  0
  7 27  1  0  0  0  0
  7 28  1  0  0  0  0
  7 29  1  0  0  0  0
  8 10  1  0  0  0  0
  8 12  2  0  0  0  0
  9 11  1  0  0  0  0
  9 13  2  0  0  0  0
 10 16  2  0  0  0  0
 11 17  2  0  0  0  0
 12 18  1  0  0  0  0
 12 30  1  0  0  0  0
 13 19  1  0  0  0  0
 13 31  1  0  0  0  0
 14 32  1  0  0  0  0
 14 33  1  0  0  0  0
 14 34  1  0  0  0  0
 15 35  1  0  0  0  0
 15 36  1  0  0  0  0
 15 37  1  0  0  0  0
 16 20  1  0  0  0  0
 16 38  1  0  0  0  0
 17 21  1  0  0  0  0
 17 39  1  0  0  0  0
 18 20  2  0  0  0  0
 18 40  1  0  0  0  0
 19 21  2  0  0  0  0
 19 41  1  0  0  0  0
 20 42  1  0  0  0  0
 21 43  1  0  0  0  0
M  END
> <PUBCHEM_COMPOUND_CID>
5574

> <PUBCHEM_CONFORMER_RMSD>
0.6

> <PUBCHEM_CONFORMER_DIVERSEORDER>
1
3
6
4
5
7
2

> <PUBCHEM_MMFF94_PARTIAL_CHARGES>
27
1 -0.2
10 0.1
11 0.1
12 -0.15
13 -0.15
14 0.27
15 0.27
16 -0.15
17 -0.15
18 -0.15
19 -0.15
2 -0.57
20 -0.15
21 -0.15
3 -0.81
30 0.15
31 0.15
38 0.15
39 0.15
40 0.15
41 0.15
42 0.15
43 0.15
5 0.37
6 0.27
8 0.1
9 0.1

> <PUBCHEM_EFFECTIVE_ROTOR_COUNT>
4.4

> <PUBCHEM_PHARMACOPHORE_FEATURES>
6
1 2 cation
1 3 cation
1 7 hydrophobe
6 1 2 8 9 10 11 rings
6 8 10 12 16 18 20 rings
6 9 11 13 17 19 21 rings

> <PUBCHEM_HEAVY_ATOM_COUNT>
21

> <PUBCHEM_ATOM_DEF_STEREO_COUNT>
0

> <PUBCHEM_ATOM_UDEF_STEREO_COUNT>
1

> <PUBCHEM_BOND_DEF_STEREO_COUNT>
0

> <PUBCHEM_BOND_UDEF_STEREO_COUNT>
0

> <PUBCHEM_ISOTOPIC_ATOM_COUNT>
0

> <PUBCHEM_COMPONENT_COUNT>
1

> <PUBCHEM_CACTVS_TAUTO_COUNT>
1

> <PUBCHEM_CONFORMER_ID>
000015C600000001

> <PUBCHEM_MMFF94_ENERGY>
77.8084

> <PUBCHEM_FEATURE_SELFOVERLAP>
30.477

> <PUBCHEM_SHAPE_FINGERPRINT>
10165383 225 17047427828857185900
10319926 262 18125142863654432162
10369192 42 16915935357440512808
10411042 1 18410576231615136487
1100329 8 18409173207828586865
11045515 52 18187639236618061604
11135609 187 17756149243231199732
11265709 11 18409451405497181291
11578080 2 17750498732484249349
11595378 159 18263623135862116994
12173636 292 17834674894617722316
12553582 1 18339379542259782919
12788726 201 18263664925682779950
13004483 165 18336532825161809955
13009979 54 17915758650238462915
13140716 1 18411989061138537889
13540713 5 17841442733001654095
138480 1 15384436106945834988
13965767 371 17623040930947091121
14081887 123 18338789014547713616
14787075 74 18042123340059740722
14955137 171 18336560403263141547
15042514 8 18338521824352842639
17980427 23 17703794751812716453
1813 80 18262507221200050138
20600515 1 18200889404416649949
21041028 32 18409735100866443597
21202864 24 18197786496276471937
21421861 104 18051151455757786361
21650355 55 18411139108537724287
22112679 90 18338533991968714629
23366157 5 17901954371972045413
23402539 116 18409162208333237970
23419403 2 17986363755161809761
23557571 272 18342742875762832174
23559900 14 18124020485262088507
23598288 3 18115888316124766509
25147074 1 17770792513805100951
3091708 16 9207584694863176765
34934 24 18188489060622699915
43471831 8 17259341597104355647
4409770 3 18118114775879572277
5104073 3 18199174124013715786
6287921 2 18056752355157776448
7364860 26 17979074113175414023
7399639 24 18201141240378101362
7471813 234 18057031626747698887
81228 2 18268416958865978455
90316 7 18338242569874081045
9981440 41 17400634931210780416

> <PUBCHEM_SHAPE_MULTIPOLES>
426.06
7.71
4.62
1.11
9.65
4.52
0.11
-7.91
1.9
-2.18
-0.8
-0.09
0.04
-0.93

> <PUBCHEM_SHAPE_SELFOVERLAP>
890.293

> <PUBCHEM_SHAPE_VOLUME>
242.6

> <PUBCHEM_COORDINATE_TYPE>
2
5
10

$$$$
