93017
  -OEChem-09112009503D

 42 44  0     1  0  0  0  0  0999 V2000
    3.0420    1.3728    1.3070 O   0  0  0  0  0  0  0  0  0  0  0  0
    3.7552   -0.7914    1.2505 O   0  0  0  0  0  0  0  0  0  0  0  0
   -4.8213   -1.5690    0.1983 O   0  0  0  0  0  0  0  0  0  0  0  0
    0.9690    0.4991   -0.5226 C   0  0  2  0  0  0  0  0  0  0  0  0
    0.0346   -0.5679    0.1617 C   0  0  2  0  0  0  0  0  0  0  0  0
    2.4792    0.1128   -0.6040 C   0  0  1  0  0  0  0  0  0  0  0  0
    0.2797   -1.9285   -0.5494 C   0  0  0  0  0  0  0  0  0  0  0  0
    0.6921    1.8960    0.0555 C   0  0  0  0  0  0  0  0  0  0  0  0
    2.6316   -1.2892   -1.2301 C   0  0  0  0  0  0  0  0  0  0  0  0
    1.7480   -2.3462   -0.5821 C   0  0  0  0  0  0  0  0  0  0  0  0
   -1.4383   -0.1152    0.0383 C   0  0  0  0  0  0  0  0  0  0  0  0
    0.2862   -0.7417    1.6810 C   0  0  0  0  0  0  0  0  0  0  0  0
   -0.7331    2.3288   -0.2744 C   0  0  0  0  0  0  0  0  0  0  0  0
   -1.7716    1.2472   -0.1234 C   0  0  0  0  0  0  0  0  0  0  0  0
    3.2684    1.1041   -1.4851 C   0  0  0  0  0  0  0  0  0  0  0  0
    3.1667    0.1489    0.7379 C   0  0  0  0  0  0  0  0  0  0  0  0
   -2.4927   -1.0439    0.1565 C   0  0  0  0  0  0  0  0  0  0  0  0
   -3.1226    1.6337   -0.2015 C   0  0  0  0  0  0  0  0  0  0  0  0
   -3.8287   -0.6447    0.0842 C   0  0  0  0  0  0  0  0  0  0  0  0
   -4.1442    0.6944   -0.0983 C   0  0  0  0  0  0  0  0  0  0  0  0
    0.6442    0.5485   -1.5766 H   0  0  0  0  0  0  0  0  0  0  0  0
   -0.0950   -1.8760   -1.5809 H   0  0  0  0  0  0  0  0  0  0  0  0
   -0.2779   -2.7369   -0.0620 H   0  0  0  0  0  0  0  0  0  0  0  0
    1.3688    2.6562   -0.3450 H   0  0  0  0  0  0  0  0  0  0  0  0
    0.7976    1.9138    1.1439 H   0  0  0  0  0  0  0  0  0  0  0  0
    3.6756   -1.6263   -1.1918 H   0  0  0  0  0  0  0  0  0  0  0  0
    2.3706   -1.2374   -2.2962 H   0  0  0  0  0  0  0  0  0  0  0  0
    2.0990   -2.5804    0.4278 H   0  0  0  0  0  0  0  0  0  0  0  0
    1.8372   -3.2792   -1.1521 H   0  0  0  0  0  0  0  0  0  0  0  0
    1.2938   -1.0817    1.9173 H   0  0  0  0  0  0  0  0  0  0  0  0
    0.1049    0.1809    2.2421 H   0  0  0  0  0  0  0  0  0  0  0  0
   -0.3910   -1.4947    2.1046 H   0  0  0  0  0  0  0  0  0  0  0  0
   -0.7624    2.6732   -1.3165 H   0  0  0  0  0  0  0  0  0  0  0  0
   -0.9952    3.1856    0.3584 H   0  0  0  0  0  0  0  0  0  0  0  0
    3.3182    2.1153   -1.0697 H   0  0  0  0  0  0  0  0  0  0  0  0
    4.3068    0.7725   -1.6115 H   0  0  0  0  0  0  0  0  0  0  0  0
    2.8244    1.1795   -2.4843 H   0  0  0  0  0  0  0  0  0  0  0  0
   -2.2870   -2.0979    0.3224 H   0  0  0  0  0  0  0  0  0  0  0  0
   -3.3824    2.6803   -0.3450 H   0  0  0  0  0  0  0  0  0  0  0  0
   -5.1783    1.0216   -0.1589 H   0  0  0  0  0  0  0  0  0  0  0  0
    3.4795    1.4154    2.1837 H   0  0  0  0  0  0  0  0  0  0  0  0
   -5.6809   -1.1194    0.1269 H   0  0  0  0  0  0  0  0  0  0  0  0
  1 16  1  0  0  0  0
  1 41  1  0  0  0  0
  2 16  2  0  0  0  0
  3 19  1  0  0  0  0
  3 42  1  0  0  0  0
  4  5  1  0  0  0  0
  4  6  1  0  0  0  0
  4  8  1  0  0  0  0
  4 21  1  0  0  0  0
  5  7  1  0  0  0  0
  5 11  1  0  0  0  0
  5 12  1  0  0  0  0
  6  9  1  0  0  0  0
  6 15  1  0  0  0  0
  6 16  1  0  0  0  0
  7 10  1  0  0  0  0
  7 22  1  0  0  0  0
  7 23  1  0  0  0  0
  8 13  1  0  0  0  0
  8 24  1  0  0  0  0
  8 25  1  0  0  0  0
  9 10  1  0  0  0  0
  9 26  1  0  0  0  0
  9 27  1  0  0  0  0
 10 28  1  0  0  0  0
 10 29  1  0  0  0  0
 11 14  2  0  0  0  0
 11 17  1  0  0  0  0
 12 30  1  0  0  0  0
 12 31  1  0  0  0  0
 12 32  1  0  0  0  0
 13 14  1  0  0  0  0
 13 33  1  0  0  0  0
 13 34  1  0  0  0  0
 14 18  1  0  0  0  0
 15 35  1  0  0  0  0
 15 36  1  0  0  0  0
 15 37  1  0  0  0  0
 17 19  2  0  0  0  0
 17 38  1  0  0  0  0
 18 20  2  0  0  0  0
 18 39  1  0  0  0  0
 19 20  1  0  0  0  0
 20 40  1  0  0  0  0
M  END
> <PUBCHEM_COMPOUND_CID>
93017

> <PUBCHEM_CONFORMER_RMSD>
0.6

> <PUBCHEM_CONFORMER_DIVERSEORDER>
1

> <PUBCHEM_MMFF94_PARTIAL_CHARGES>
18
1 -0.65
11 -0.14
13 0.14
14 -0.14
16 0.66
17 -0.15
18 -0.15
19 0.08
2 -0.57
20 -0.15
3 -0.53
38 0.15
39 0.15
40 0.15
41 0.5
42 0.45
5 0.14
6 0.06

> <PUBCHEM_EFFECTIVE_ROTOR_COUNT>
2.2

> <PUBCHEM_PHARMACOPHORE_FEATURES>
7
1 1 acceptor
1 2 acceptor
1 3 donor
3 1 2 16 anion
6 11 14 17 18 19 20 rings
6 4 5 6 7 9 10 rings
6 4 5 8 11 13 14 rings

> <PUBCHEM_HEAVY_ATOM_COUNT>
20

> <PUBCHEM_ATOM_DEF_STEREO_COUNT>
3

> <PUBCHEM_ATOM_UDEF_STEREO_COUNT>
0

> <PUBCHEM_BOND_DEF_STEREO_COUNT>
0

> <PUBCHEM_BOND_UDEF_STEREO_COUNT>
0

> <PUBCHEM_ISOTOPIC_ATOM_COUNT>
0

> <PUBCHEM_COMPONENT_COUNT>
1

> <PUBCHEM_CACTVS_TAUTO_COUNT>
3

> <PUBCHEM_CONFORMER_ID>
00016B5900000001

> <PUBCHEM_MMFF94_ENERGY>
68.8236

> <PUBCHEM_FEATURE_SELFOVERLAP>
35.612

> <PUBCHEM_SHAPE_FINGERPRINT>
10062212 137 18334288765026553603
10608611 8 18341328877717987277
10646746 165 18411412882527582848
10759866 29 17895203241865488972
10863032 1 18200597986448055349
10871710 139 16753523414608802128
10967382 1 18339366369694857959
11132069 177 18409165476766030709
11578080 2 12606558741687261266
11961588 58 17897739892574370748
12236239 1 17822009818162240068
12403259 226 18341327786901633184
12553582 1 18340492282798040367
13140716 1 17980197809811662571
13221675 6 18410293610234962085
13224815 77 18335707130604855765
13296908 3 18341056220345889871
14178342 30 18268429044693245385
14223421 5 18341610361121095669
15196674 1 18410015424944821853
15219456 202 18272086050568856871
15536298 74 18271528593873319567
16945 1 18340492252216148469
17349148 13 18186517700487837519
18186145 218 17346608468816312166
20691752 17 17458635453849676477
20905425 154 18194965145260591486
21069387 34 16515685520082902376
21267235 1 18337403668509599967
21421861 104 17825104805422700763
21501502 16 18267033751552305789
22802520 49 18056482750990383247
2334 1 18411142394309135599
23402539 116 18335691737157275838
23419403 2 15750582374036102178
23463225 33 18333167254259912796
23493267 7 17750818677778057922
23557571 272 18342173341054742906
23559900 14 18194965145429578510
2748010 2 18340209578991022239
3286 77 18260540156079891628
3323516 105 18272660038477433319
335352 9 17978233751384577781
34934 24 18338228281003314013
394222 165 17605565559734927476
474 4 16590010453585629220
495365 180 17487034696913379273
5104073 3 18411422782854176475
633830 44 17676499315048868615
7364860 26 18127125269284655598
7832392 63 18196379113130206797
81228 2 18190191091669647001
84936 31 17059771105446645726
9709674 26 18409737252835339671

> <PUBCHEM_SHAPE_MULTIPOLES>
393.98
7.15
2.27
1.17
4.5
0.05
-0.22
-0.7
-0.08
0.1
0.32
-1.21
-0.06
0.31

> <PUBCHEM_SHAPE_SELFOVERLAP>
851.871

> <PUBCHEM_SHAPE_VOLUME>
213.5

> <PUBCHEM_COORDINATE_TYPE>
2
5
10

$$$$
