194654
  -OEChem-09112009543D

 22 23  0     0  0  0  0  0  0999 V2000
   -3.5202    1.6606   -0.0166 Cl  0  0  0  0  0  0  0  0  0  0  0  0
    3.4043    0.2052   -0.7396 N   0  0  0  0  0  0  0  0  0  0  0  0
   -0.5174    2.0042    0.0192 N   0  0  0  0  0  0  0  0  0  0  0  0
   -0.0587   -0.3864    0.0229 C   0  0  0  0  0  0  0  0  0  0  0  0
    1.3604   -0.1435    0.0395 C   0  0  0  0  0  0  0  0  0  0  0  0
   -0.9768    0.6637    0.0134 C   0  0  0  0  0  0  0  0  0  0  0  0
   -0.5090   -1.7066    0.0163 C   0  0  0  0  0  0  0  0  0  0  0  0
    2.1036   -0.0175   -1.1094 C   0  0  0  0  0  0  0  0  0  0  0  0
    2.2354    0.0072    1.1384 C   0  0  0  0  0  0  0  0  0  0  0  0
   -2.3451    0.3936   -0.0028 C   0  0  0  0  0  0  0  0  0  0  0  0
    3.4963    0.2228    0.6278 C   0  0  0  0  0  0  0  0  0  0  0  0
   -1.8773   -1.9767    0.0003 C   0  0  0  0  0  0  0  0  0  0  0  0
   -2.7954   -0.9265   -0.0094 C   0  0  0  0  0  0  0  0  0  0  0  0
    0.1914   -2.5387    0.0240 H   0  0  0  0  0  0  0  0  0  0  0  0
    1.8340   -0.0643   -2.1559 H   0  0  0  0  0  0  0  0  0  0  0  0
    1.9840   -0.0344    2.1894 H   0  0  0  0  0  0  0  0  0  0  0  0
    4.1772    0.3368   -1.3774 H   0  0  0  0  0  0  0  0  0  0  0  0
    4.4477    0.3864    1.1138 H   0  0  0  0  0  0  0  0  0  0  0  0
   -2.2280   -3.0046   -0.0047 H   0  0  0  0  0  0  0  0  0  0  0  0
   -3.8583   -1.1545   -0.0221 H   0  0  0  0  0  0  0  0  0  0  0  0
    0.4689    2.2223    0.0363 H   0  0  0  0  0  0  0  0  0  0  0  0
   -1.1930    2.7574    0.0140 H   0  0  0  0  0  0  0  0  0  0  0  0
  1 10  1  0  0  0  0
  2  8  1  0  0  0  0
  2 11  1  0  0  0  0
  2 17  1  0  0  0  0
  3  6  1  0  0  0  0
  3 21  1  0  0  0  0
  3 22  1  0  0  0  0
  4  5  1  0  0  0  0
  4  6  2  0  0  0  0
  4  7  1  0  0  0  0
  5  8  2  0  0  0  0
  5  9  1  0  0  0  0
  6 10  1  0  0  0  0
  7 12  2  0  0  0  0
  7 14  1  0  0  0  0
  8 15  1  0  0  0  0
  9 11  2  0  0  0  0
  9 16  1  0  0  0  0
 10 13  2  0  0  0  0
 11 18  1  0  0  0  0
 12 13  1  0  0  0  0
 12 19  1  0  0  0  0
 13 20  1  0  0  0  0
M  END
> <PUBCHEM_COMPOUND_CID>
194654

> <PUBCHEM_CONFORMER_RMSD>
0.4

> <PUBCHEM_CONFORMER_DIVERSEORDER>
1
3
6
5
4
2

> <PUBCHEM_MMFF94_PARTIAL_CHARGES>
22
1 -0.18
10 0.18
11 -0.3
12 -0.15
13 -0.15
14 0.15
15 0.15
16 0.15
17 0.27
18 0.15
19 0.15
2 0.03
20 0.15
21 0.4
22 0.4
3 -0.9
4 0.05
5 -0.05
6 0.1
7 -0.15
8 -0.3
9 -0.15

> <PUBCHEM_EFFECTIVE_ROTOR_COUNT>
1

> <PUBCHEM_PHARMACOPHORE_FEATURES>
6
1 2 cation
1 2 donor
1 3 cation
1 3 donor
5 2 5 8 9 11 rings
6 4 6 7 10 12 13 rings

> <PUBCHEM_HEAVY_ATOM_COUNT>
13

> <PUBCHEM_ATOM_DEF_STEREO_COUNT>
0

> <PUBCHEM_ATOM_UDEF_STEREO_COUNT>
0

> <PUBCHEM_BOND_DEF_STEREO_COUNT>
0

> <PUBCHEM_BOND_UDEF_STEREO_COUNT>
0

> <PUBCHEM_ISOTOPIC_ATOM_COUNT>
0

> <PUBCHEM_COMPONENT_COUNT>
1

> <PUBCHEM_CACTVS_TAUTO_COUNT>
1

> <PUBCHEM_CONFORMER_ID>
0002F85E00000001

> <PUBCHEM_MMFF94_ENERGY>
39.7979

> <PUBCHEM_FEATURE_SELFOVERLAP>
30.446

> <PUBCHEM_SHAPE_FINGERPRINT>
10608611 8 18201715197594107200
10857977 72 18270958058786087890
11132069 177 18411979152495914249
12138202 97 18272931613633817135
124424 183 17846494803809354090
12716758 59 18341616988176518603
12932764 1 17458338650229671108
13024252 1 15936405658947776603
13380535 76 18339638928514913615
13538477 17 18186236238448587970
13764800 53 18411428280269955033
14144814 61 18260827115819464618
14325111 11 18410573963687190154
14897335 6 18337946780124898183
15219456 202 17918276458940919598
15669948 3 18337106860309660534
15775835 57 18260830362772542448
16945 1 18338517542534283515
17846911 113 18340198601192010329
18175812 5 17846779637112802212
18186145 218 17846223215346134017
19422 9 17821730554529385978
20201158 50 17703793608876733534
20279233 1 17775283867778557950
20510252 161 18343868835535336545
20645464 45 17988921193021234651
20645476 183 17967825954362096607
20645477 70 16702308901778510486
20715346 28 17775003543752842778
20871998 184 18200316644610472071
22802520 49 17986971673100839566
23402539 116 18271513235181071428
23552423 10 17682682070726737685
23557571 272 18271815682699483012
23559900 14 18271808995899431974
2748010 2 18196081368854081273
276578 36 18265056834040817275
474 4 16952263259765403828
53812653 166 18343298137518987329
6333449 129 18343862221248712015
7364860 26 17982448200570541678
75552 356 18410009965777566379
77492 1 17676203597971251162

> <PUBCHEM_SHAPE_MULTIPOLES>
259.44
5.68
1.76
0.87
1.54
0.14
0.01
-1.4
-0.07
-1.8
-0.01
0.64
-0.02
0.01

> <PUBCHEM_SHAPE_SELFOVERLAP>
558.38

> <PUBCHEM_SHAPE_VOLUME>
144.5

> <PUBCHEM_COORDINATE_TYPE>
2
5
10

$$$$
