134733228
  -OEChem-09112009492D

134133  0     1  0  0  0  0  0999 V2000
    6.0010   -8.0670    0.0000 P   0  0  3  0  0  0  0  0  0  0  0  0
    9.4651   -6.0670    0.0000 O   0  0  0  0  0  0  0  0  0  0  0  0
    9.4651   -8.0670    0.0000 O   0  0  0  0  0  0  0  0  0  0  0  0
    6.8671   -7.5670    0.0000 O   0  0  0  0  0  0  0  0  0  0  0  0
   10.3312   -6.5670    0.0000 O   0  0  0  0  0  0  0  0  0  0  0  0
    5.1350   -8.5670    0.0000 O   0  0  0  0  0  0  0  0  0  0  0  0
    5.5010   -7.2010    0.0000 O   0  0  0  0  0  0  0  0  0  0  0  0
    6.5010   -8.9330    0.0000 O   0  0  0  0  0  0  0  0  0  0  0  0
    2.5369   -8.0670    0.0000 N   0  0  0  0  0  0  0  0  0  0  0  0
    7.7331    2.9330    0.0000 C   0  0  0  0  0  0  0  0  0  0  0  0
    7.7331    3.9330    0.0000 C   0  0  0  0  0  0  0  0  0  0  0  0
    8.5991    2.4330    0.0000 C   0  0  0  0  0  0  0  0  0  0  0  0
    6.8671    4.4330    0.0000 C   0  0  0  0  0  0  0  0  0  0  0  0
    8.5991    1.4330    0.0000 C   0  0  0  0  0  0  0  0  0  0  0  0
    6.8671    5.4330    0.0000 C   0  0  0  0  0  0  0  0  0  0  0  0
    9.4651    0.9330    0.0000 C   0  0  0  0  0  0  0  0  0  0  0  0
    6.0010    5.9330    0.0000 C   0  0  0  0  0  0  0  0  0  0  0  0
    9.4651   -0.0670    0.0000 C   0  0  0  0  0  0  0  0  0  0  0  0
    6.0010    6.9330    0.0000 C   0  0  0  0  0  0  0  0  0  0  0  0
   10.3312   -0.5670    0.0000 C   0  0  0  0  0  0  0  0  0  0  0  0
    5.1350    7.4330    0.0000 C   0  0  0  0  0  0  0  0  0  0  0  0
   15.5273   -1.5670    0.0000 C   0  0  0  0  0  0  0  0  0  0  0  0
   15.5273   -0.5670    0.0000 C   0  0  0  0  0  0  0  0  0  0  0  0
   10.3312   -1.5670    0.0000 C   0  0  0  0  0  0  0  0  0  0  0  0
    5.1350    8.4330    0.0000 C   0  0  0  0  0  0  0  0  0  0  0  0
   14.6613   -2.0670    0.0000 C   0  0  0  0  0  0  0  0  0  0  0  0
   16.3933   -0.0670    0.0000 C   0  0  0  0  0  0  0  0  0  0  0  0
   14.6613   -3.0670    0.0000 C   0  0  0  0  0  0  0  0  0  0  0  0
   16.3933    0.9330    0.0000 C   0  0  0  0  0  0  0  0  0  0  0  0
   13.7953   -3.5670    0.0000 C   0  0  0  0  0  0  0  0  0  0  0  0
    4.2690    8.9330    0.0000 C   0  0  0  0  0  0  0  0  0  0  0  0
   11.1972   -2.0670    0.0000 C   0  0  0  0  0  0  0  0  0  0  0  0
   17.2594    1.4330    0.0000 C   0  0  0  0  0  0  0  0  0  0  0  0
   13.7953   -4.5670    0.0000 C   0  0  0  0  0  0  0  0  0  0  0  0
   11.1972   -3.0670    0.0000 C   0  0  0  0  0  0  0  0  0  0  0  0
   10.3312   -3.5670    0.0000 C   0  0  0  0  0  0  0  0  0  0  0  0
   17.2594    2.4330    0.0000 C   0  0  0  0  0  0  0  0  0  0  0  0
   14.6613   -5.0670    0.0000 C   0  0  0  0  0  0  0  0  0  0  0  0
   10.3312   -4.5670    0.0000 C   0  0  0  0  0  0  0  0  0  0  0  0
    9.4651   -5.0670    0.0000 C   0  0  0  0  0  0  0  0  0  0  0  0
   14.6613   -6.0670    0.0000 C   0  0  0  0  0  0  0  0  0  0  0  0
   13.7953   -6.5670    0.0000 C   0  0  0  0  0  0  0  0  0  0  0  0
    8.5991   -6.5670    0.0000 C   0  0  0  0  0  0  0  0  0  0  0  0
    8.5991   -7.5670    0.0000 C   0  0  3  0  0  0  0  0  0  0  0  0
    7.7331   -8.0670    0.0000 C   0  0  0  0  0  0  0  0  0  0  0  0
   13.7953   -7.5670    0.0000 C   0  0  0  0  0  0  0  0  0  0  0  0
   12.0632   -7.5670    0.0000 C   0  0  0  0  0  0  0  0  0  0  0  0
   11.1972   -8.0670    0.0000 C   0  0  0  0  0  0  0  0  0  0  0  0
   12.9292   -8.0670    0.0000 C   0  0  0  0  0  0  0  0  0  0  0  0
   10.3312   -7.5670    0.0000 C   0  0  0  0  0  0  0  0  0  0  0  0
    4.2690   -8.0670    0.0000 C   0  0  0  0  0  0  0  0  0  0  0  0
    3.4030   -8.5670    0.0000 C   0  0  0  0  0  0  0  0  0  0  0  0
    7.1225    3.0407    0.0000 H   0  0  0  0  0  0  0  0  0  0  0  0
    7.5210    2.3504    0.0000 H   0  0  0  0  0  0  0  0  0  0  0  0
    8.3437    3.8254    0.0000 H   0  0  0  0  0  0  0  0  0  0  0  0
    7.9451    4.5156    0.0000 H   0  0  0  0  0  0  0  0  0  0  0  0
    9.2097    2.3253    0.0000 H   0  0  0  0  0  0  0  0  0  0  0  0
    8.8112    3.0156    0.0000 H   0  0  0  0  0  0  0  0  0  0  0  0
    6.2565    4.5407    0.0000 H   0  0  0  0  0  0  0  0  0  0  0  0
    6.6550    3.8504    0.0000 H   0  0  0  0  0  0  0  0  0  0  0  0
    7.9885    1.5407    0.0000 H   0  0  0  0  0  0  0  0  0  0  0  0
    8.3871    0.8504    0.0000 H   0  0  0  0  0  0  0  0  0  0  0  0
    7.4776    5.3254    0.0000 H   0  0  0  0  0  0  0  0  0  0  0  0
    7.0791    6.0156    0.0000 H   0  0  0  0  0  0  0  0  0  0  0  0
   10.0757    0.8254    0.0000 H   0  0  0  0  0  0  0  0  0  0  0  0
    9.6772    1.5156    0.0000 H   0  0  0  0  0  0  0  0  0  0  0  0
    5.3905    6.0407    0.0000 H   0  0  0  0  0  0  0  0  0  0  0  0
    5.7890    5.3504    0.0000 H   0  0  0  0  0  0  0  0  0  0  0  0
    8.8546    0.0407    0.0000 H   0  0  0  0  0  0  0  0  0  0  0  0
    9.2531   -0.6496    0.0000 H   0  0  0  0  0  0  0  0  0  0  0  0
    6.6116    6.8254    0.0000 H   0  0  0  0  0  0  0  0  0  0  0  0
    6.2131    7.5156    0.0000 H   0  0  0  0  0  0  0  0  0  0  0  0
   10.9417   -0.6746    0.0000 H   0  0  0  0  0  0  0  0  0  0  0  0
   10.5432    0.0156    0.0000 H   0  0  0  0  0  0  0  0  0  0  0  0
    4.5244    7.5407    0.0000 H   0  0  0  0  0  0  0  0  0  0  0  0
    4.9230    6.8504    0.0000 H   0  0  0  0  0  0  0  0  0  0  0  0
   15.7394   -2.1496    0.0000 H   0  0  0  0  0  0  0  0  0  0  0  0
   16.1379   -1.4593    0.0000 H   0  0  0  0  0  0  0  0  0  0  0  0
   15.3153    0.0156    0.0000 H   0  0  0  0  0  0  0  0  0  0  0  0
   14.9167   -0.6746    0.0000 H   0  0  0  0  0  0  0  0  0  0  0  0
   14.4492   -1.4844    0.0000 H   0  0  0  0  0  0  0  0  0  0  0  0
   14.0507   -2.1747    0.0000 H   0  0  0  0  0  0  0  0  0  0  0  0
    9.7206   -1.4593    0.0000 H   0  0  0  0  0  0  0  0  0  0  0  0
   10.1191   -2.1496    0.0000 H   0  0  0  0  0  0  0  0  0  0  0  0
    5.7456    8.3254    0.0000 H   0  0  0  0  0  0  0  0  0  0  0  0
    5.3471    9.0156    0.0000 H   0  0  0  0  0  0  0  0  0  0  0  0
   16.6054   -0.6496    0.0000 H   0  0  0  0  0  0  0  0  0  0  0  0
   17.0039    0.0407    0.0000 H   0  0  0  0  0  0  0  0  0  0  0  0
   14.8733   -3.6496    0.0000 H   0  0  0  0  0  0  0  0  0  0  0  0
   15.2719   -2.9593    0.0000 H   0  0  0  0  0  0  0  0  0  0  0  0
   16.1813    1.5156    0.0000 H   0  0  0  0  0  0  0  0  0  0  0  0
   15.7828    0.8254    0.0000 H   0  0  0  0  0  0  0  0  0  0  0  0
   13.5832   -2.9844    0.0000 H   0  0  0  0  0  0  0  0  0  0  0  0
   13.1847   -3.6746    0.0000 H   0  0  0  0  0  0  0  0  0  0  0  0
    4.5790    9.4700    0.0000 H   0  0  0  0  0  0  0  0  0  0  0  0
    3.7320    9.2430    0.0000 H   0  0  0  0  0  0  0  0  0  0  0  0
    3.9590    8.3961    0.0000 H   0  0  0  0  0  0  0  0  0  0  0  0
   11.7341   -1.7570    0.0000 H   0  0  0  0  0  0  0  0  0  0  0  0
   17.4714    0.8504    0.0000 H   0  0  0  0  0  0  0  0  0  0  0  0
   17.8699    1.5407    0.0000 H   0  0  0  0  0  0  0  0  0  0  0  0
   13.1847   -4.4593    0.0000 H   0  0  0  0  0  0  0  0  0  0  0  0
   13.5832   -5.1496    0.0000 H   0  0  0  0  0  0  0  0  0  0  0  0
   11.7341   -3.3770    0.0000 H   0  0  0  0  0  0  0  0  0  0  0  0
   17.8794    2.4330    0.0000 H   0  0  0  0  0  0  0  0  0  0  0  0
   17.2594    3.0530    0.0000 H   0  0  0  0  0  0  0  0  0  0  0  0
   16.6394    2.4330    0.0000 H   0  0  0  0  0  0  0  0  0  0  0  0
   10.1191   -2.9844    0.0000 H   0  0  0  0  0  0  0  0  0  0  0  0
    9.7206   -3.6746    0.0000 H   0  0  0  0  0  0  0  0  0  0  0  0
   15.1982   -4.7570    0.0000 H   0  0  0  0  0  0  0  0  0  0  0  0
   10.5432   -5.1496    0.0000 H   0  0  0  0  0  0  0  0  0  0  0  0
   10.9417   -4.4593    0.0000 H   0  0  0  0  0  0  0  0  0  0  0  0
    9.2531   -4.4844    0.0000 H   0  0  0  0  0  0  0  0  0  0  0  0
    8.8546   -5.1746    0.0000 H   0  0  0  0  0  0  0  0  0  0  0  0
   15.1982   -6.3770    0.0000 H   0  0  0  0  0  0  0  0  0  0  0  0
   13.5832   -5.9844    0.0000 H   0  0  0  0  0  0  0  0  0  0  0  0
   13.1847   -6.6746    0.0000 H   0  0  0  0  0  0  0  0  0  0  0  0
    8.5991   -8.1870    0.0000 H   0  0  0  0  0  0  0  0  0  0  0  0
    8.3871   -5.9844    0.0000 H   0  0  0  0  0  0  0  0  0  0  0  0
    7.9885   -6.6746    0.0000 H   0  0  0  0  0  0  0  0  0  0  0  0
    7.3346   -8.5419    0.0000 H   0  0  0  0  0  0  0  0  0  0  0  0
    8.1316   -8.5419    0.0000 H   0  0  0  0  0  0  0  0  0  0  0  0
   14.3322   -7.8770    0.0000 H   0  0  0  0  0  0  0  0  0  0  0  0
   12.4617   -7.0920    0.0000 H   0  0  0  0  0  0  0  0  0  0  0  0
   11.6647   -7.0920    0.0000 H   0  0  0  0  0  0  0  0  0  0  0  0
   10.7987   -8.5419    0.0000 H   0  0  0  0  0  0  0  0  0  0  0  0
   11.5957   -8.5419    0.0000 H   0  0  0  0  0  0  0  0  0  0  0  0
   12.9292   -8.6870    0.0000 H   0  0  0  0  0  0  0  0  0  0  0  0
    4.6675   -7.5920    0.0000 H   0  0  0  0  0  0  0  0  0  0  0  0
    3.8705   -7.5920    0.0000 H   0  0  0  0  0  0  0  0  0  0  0  0
    5.8110   -6.6640    0.0000 H   0  0  0  0  0  0  0  0  0  0  0  0
    3.0044   -9.0419    0.0000 H   0  0  0  0  0  0  0  0  0  0  0  0
    3.8015   -9.0419    0.0000 H   0  0  0  0  0  0  0  0  0  0  0  0
    2.0000   -8.3770    0.0000 H   0  0  0  0  0  0  0  0  0  0  0  0
    2.5369   -7.4470    0.0000 H   0  0  0  0  0  0  0  0  0  0  0  0
  1  4  1  0  0  0  0
  1  6  1  0  0  0  0
  1  7  1  0  0  0  0
  1  8  2  0  0  0  0
  2 40  1  0  0  0  0
  2 43  1  0  0  0  0
  3 44  1  0  0  0  0
  3 50  1  0  0  0  0
  4 45  1  0  0  0  0
  5 50  2  0  0  0  0
  6 51  1  0  0  0  0
  7130  1  0  0  0  0
  9 52  1  0  0  0  0
  9133  1  0  0  0  0
  9134  1  0  0  0  0
 10 11  1  0  0  0  0
 10 12  1  0  0  0  0
 10 53  1  0  0  0  0
 10 54  1  0  0  0  0
 11 13  1  0  0  0  0
 11 55  1  0  0  0  0
 11 56  1  0  0  0  0
 12 14  1  0  0  0  0
 12 57  1  0  0  0  0
 12 58  1  0  0  0  0
 13 15  1  0  0  0  0
 13 59  1  0  0  0  0
 13 60  1  0  0  0  0
 14 16  1  0  0  0  0
 14 61  1  0  0  0  0
 14 62  1  0  0  0  0
 15 17  1  0  0  0  0
 15 63  1  0  0  0  0
 15 64  1  0  0  0  0
 16 18  1  0  0  0  0
 16 65  1  0  0  0  0
 16 66  1  0  0  0  0
 17 19  1  0  0  0  0
 17 67  1  0  0  0  0
 17 68  1  0  0  0  0
 18 20  1  0  0  0  0
 18 69  1  0  0  0  0
 18 70  1  0  0  0  0
 19 21  1  0  0  0  0
 19 71  1  0  0  0  0
 19 72  1  0  0  0  0
 20 24  1  0  0  0  0
 20 73  1  0  0  0  0
 20 74  1  0  0  0  0
 21 25  1  0  0  0  0
 21 75  1  0  0  0  0
 21 76  1  0  0  0  0
 22 23  1  0  0  0  0
 22 26  1  0  0  0  0
 22 77  1  0  0  0  0
 22 78  1  0  0  0  0
 23 27  1  0  0  0  0
 23 79  1  0  0  0  0
 23 80  1  0  0  0  0
 24 32  1  0  0  0  0
 24 83  1  0  0  0  0
 24 84  1  0  0  0  0
 25 31  1  0  0  0  0
 25 85  1  0  0  0  0
 25 86  1  0  0  0  0
 26 28  1  0  0  0  0
 26 81  1  0  0  0  0
 26 82  1  0  0  0  0
 27 29  1  0  0  0  0
 27 87  1  0  0  0  0
 27 88  1  0  0  0  0
 28 30  1  0  0  0  0
 28 89  1  0  0  0  0
 28 90  1  0  0  0  0
 29 33  1  0  0  0  0
 29 91  1  0  0  0  0
 29 92  1  0  0  0  0
 30 34  1  0  0  0  0
 30 93  1  0  0  0  0
 30 94  1  0  0  0  0
 31 95  1  0  0  0  0
 31 96  1  0  0  0  0
 31 97  1  0  0  0  0
 32 35  2  0  0  0  0
 32 98  1  0  0  0  0
 33 37  1  0  0  0  0
 33 99  1  0  0  0  0
 33100  1  0  0  0  0
 34 38  1  0  0  0  0
 34101  1  0  0  0  0
 34102  1  0  0  0  0
 35 36  1  0  0  0  0
 35103  1  0  0  0  0
 36 39  1  0  0  0  0
 36107  1  0  0  0  0
 36108  1  0  0  0  0
 37104  1  0  0  0  0
 37105  1  0  0  0  0
 37106  1  0  0  0  0
 38 41  2  0  0  0  0
 38109  1  0  0  0  0
 39 40  1  0  0  0  0
 39110  1  0  0  0  0
 39111  1  0  0  0  0
 40112  1  0  0  0  0
 40113  1  0  0  0  0
 41 42  1  0  0  0  0
 41114  1  0  0  0  0
 42 46  1  0  0  0  0
 42115  1  0  0  0  0
 42116  1  0  0  0  0
 43 44  1  0  0  0  0
 43118  1  0  0  0  0
 43119  1  0  0  0  0
 44 45  1  0  0  0  0
 44117  1  0  0  0  0
 45120  1  0  0  0  0
 45121  1  0  0  0  0
 46 49  2  0  0  0  0
 46122  1  0  0  0  0
 47 48  1  0  0  0  0
 47 49  1  0  0  0  0
 47123  1  0  0  0  0
 47124  1  0  0  0  0
 48 50  1  0  0  0  0
 48125  1  0  0  0  0
 48126  1  0  0  0  0
 49127  1  0  0  0  0
 51 52  1  0  0  0  0
 51128  1  0  0  0  0
 51129  1  0  0  0  0
 52131  1  0  0  0  0
 52132  1  0  0  0  0
M  END
> <PUBCHEM_COMPOUND_CID>
134733228

> <PUBCHEM_COMPOUND_CANONICALIZED>
1

> <PUBCHEM_CACTVS_COMPLEXITY>
895

> <PUBCHEM_CACTVS_HBOND_ACCEPTOR>
8

> <PUBCHEM_CACTVS_HBOND_DONOR>
2

> <PUBCHEM_CACTVS_ROTATABLE_BOND>
42

> <PUBCHEM_CACTVS_SUBSKEYS>
AAADcfB+OAIAAAAAAAAAAAAAAAAAAAAAAAAAAAAAAAAAAAAAAAAAHgAQCCAACBThgAYCCABABRCIQCDSCIAAAAAgAAAICIEAAAgDABIAAQACAAAFkAAKAAMAgIAAAAAAAAAAAAAAAAAAAAAAAAAAAAAAAA==

> <PUBCHEM_IUPAC_OPENEYE_NAME>
[1-[[2-aminoethoxy(hydroxy)phosphoryl]oxymethyl]-2-[(Z)-icos-4-enoxy]ethyl] (4Z,7Z)-octadeca-4,7-dienoate

> <PUBCHEM_IUPAC_CAS_NAME>
(4Z,7Z)-octadeca-4,7-dienoic acid [1-[2-aminoethoxy(hydroxy)phosphoryl]oxy-3-[(Z)-eicos-4-enoxy]propan-2-yl] ester

> <PUBCHEM_IUPAC_NAME_MARKUP>
[1-[2-aminoethoxy(hydroxy)phosphoryl]oxy-3-[(<I>Z</I>)-icos-4-enoxy]propan-2-yl] (4<I>Z</I>,7<I>Z</I>)-octadeca-4,7-dienoate

> <PUBCHEM_IUPAC_NAME>
[1-[2-aminoethoxy(hydroxy)phosphoryl]oxy-3-[(Z)-icos-4-enoxy]propan-2-yl] (4Z,7Z)-octadeca-4,7-dienoate

> <PUBCHEM_IUPAC_SYSTEMATIC_NAME>
[1-[2-azanylethoxy(oxidanyl)phosphoryl]oxy-3-[(Z)-icos-4-enoxy]propan-2-yl] (4Z,7Z)-octadeca-4,7-dienoate

> <PUBCHEM_IUPAC_TRADITIONAL_NAME>
(4Z,7Z)-octadeca-4,7-dienoic acid [1-[[2-aminoethoxy(hydroxy)phosphoryl]oxymethyl]-2-[(Z)-eicos-4-enoxy]ethyl] ester

> <PUBCHEM_IUPAC_INCHI>
InChI=1S/C43H82NO7P/c1-3-5-7-9-11-13-15-17-19-20-21-23-25-27-29-31-33-35-38-48-40-42(41-50-52(46,47)49-39-37-44)51-43(45)36-34-32-30-28-26-24-22-18-16-14-12-10-8-6-4-2/h24,26,29-32,42H,3-23,25,27-28,33-41,44H2,1-2H3,(H,46,47)/b26-24-,31-29-,32-30-

> <PUBCHEM_IUPAC_INCHIKEY>
GPGJCRAIGHOCDQ-QGRKPBPISA-N

> <PUBCHEM_XLOGP3_AA>
11.7

> <PUBCHEM_EXACT_MASS>
755.582891

> <PUBCHEM_MOLECULAR_FORMULA>
C43H82NO7P

> <PUBCHEM_MOLECULAR_WEIGHT>
756.1

> <PUBCHEM_OPENEYE_CAN_SMILES>
CCCCCCCCCCCCCCCC=CCCCOCC(COP(=O)(O)OCCN)OC(=O)CCC=CCC=CCCCCCCCCCC

> <PUBCHEM_OPENEYE_ISO_SMILES>
CCCCCCCCCCCCCCC/C=C\CCCOCC(COP(=O)(O)OCCN)OC(=O)CC/C=C\C/C=C\CCCCCCCCCC

> <PUBCHEM_CACTVS_TPSA>
117

> <PUBCHEM_MONOISOTOPIC_WEIGHT>
755.582891

> <PUBCHEM_TOTAL_CHARGE>
0

> <PUBCHEM_HEAVY_ATOM_COUNT>
52

> <PUBCHEM_ATOM_DEF_STEREO_COUNT>
0

> <PUBCHEM_ATOM_UDEF_STEREO_COUNT>
1

> <PUBCHEM_BOND_DEF_STEREO_COUNT>
3

> <PUBCHEM_BOND_UDEF_STEREO_COUNT>
0

> <PUBCHEM_ISOTOPIC_ATOM_COUNT>
0

> <PUBCHEM_COMPONENT_COUNT>
1

> <PUBCHEM_CACTVS_TAUTO_COUNT>
-1

> <PUBCHEM_COORDINATE_TYPE>
1
5
255

> <PUBCHEM_BONDANNOTATIONS>
44  43  3

$$$$
