8931
  -OEChem-09112009452D

119125  0     1  0  0  0  0  0999 V2000
    6.0391   -1.1419    0.0000 O   0  0  0  0  0  0  0  0  0  0  0  0
    6.3944    2.6612    0.0000 O   0  0  0  0  0  0  0  0  0  0  0  0
    4.8751    2.2691    0.0000 O   0  0  0  0  0  0  0  0  0  0  0  0
    3.4444   -1.3920    0.0000 O   0  0  0  0  0  0  0  0  0  0  0  0
    3.6635    0.6252    0.0000 O   0  0  0  0  0  0  0  0  0  0  0  0
    6.1712    3.3951    0.0000 O   0  0  0  0  0  0  0  0  0  0  0  0
    4.2954   -3.0928    0.0000 O   0  0  0  0  0  0  0  0  0  0  0  0
    7.9032    4.3951    0.0000 O   0  0  0  0  0  0  0  0  0  0  0  0
   10.1531    4.3016    0.0000 O   0  0  0  0  0  0  0  0  0  0  0  0
    3.2854    1.5816    0.0000 O   0  0  0  0  0  0  0  0  0  0  0  0
    2.4140   -0.5743    0.0000 O   0  0  0  0  0  0  0  0  0  0  0  0
    7.0372    4.8951    0.0000 O   0  0  0  0  0  0  0  0  0  0  0  0
    5.7014   -4.1042    0.0000 O   0  0  0  0  0  0  0  0  0  0  0  0
    3.5385   -5.6280    0.0000 O   0  0  0  0  0  0  0  0  0  0  0  0
   10.5692    1.8743    0.0000 N   0  0  3  0  0  0  0  0  0  0  0  0
    6.7053    0.3203    0.0000 C   0  0  1  0  0  0  0  0  0  0  0  0
    6.1104   -0.5272    0.0000 C   0  0  2  0  0  0  0  0  0  0  0  0
    6.3002    1.2281    0.0000 C   0  0  2  0  0  0  0  0  0  0  0  0
    7.0372    1.8951    0.0000 C   0  0  2  0  0  0  0  0  0  0  0  0
    7.9032    1.3951    0.0000 C   0  0  1  0  0  0  0  0  0  0  0  0
    5.0797   -0.4278    0.0000 C   0  0  1  0  0  0  0  0  0  0  0  0
    7.6940    0.4233    0.0000 C   0  0  0  0  0  0  0  0  0  0  0  0
    4.4398   -1.2961    0.0000 C   0  0  1  0  0  0  0  0  0  0  0  0
    5.2721    1.3513    0.0000 C   0  0  1  0  0  0  0  0  0  0  0  0
    8.7692    1.8951    0.0000 C   0  0  1  0  0  0  0  0  0  0  0  0
    4.6577    0.5177    0.0000 C   0  0  2  0  0  0  0  0  0  0  0  0
    6.5726   -1.5018    0.0000 C   0  0  0  0  0  0  0  0  0  0  0  0
    7.0372    2.8951    0.0000 C   0  0  2  0  0  0  0  0  0  0  0  0
    8.7692    2.8951    0.0000 C   0  0  2  0  0  0  0  0  0  0  0  0
    4.8793   -2.2810    0.0000 C   0  0  2  0  0  0  0  0  0  0  0  0
    7.9032    3.3951    0.0000 C   0  0  1  0  0  0  0  0  0  0  0  0
    7.1058   -0.6232    0.0000 C   0  0  0  0  0  0  0  0  0  0  0  0
    5.9529   -2.3845    0.0000 C   0  0  0  0  0  0  0  0  0  0  0  0
    9.6632    3.4298    0.0000 C   0  0  1  0  0  0  0  0  0  0  0  0
    9.6632    1.3605    0.0000 C   0  0  0  0  0  0  0  0  0  0  0  0
   10.5692    2.9160    0.0000 C   0  0  2  0  0  0  0  0  0  0  0  0
    9.1532    4.2900    0.0000 C   0  0  0  0  0  0  0  0  0  0  0  0
   11.5004    3.4729    0.0000 C   0  0  0  0  0  0  0  0  0  0  0  0
   11.5004    1.3174    0.0000 C   0  0  0  0  0  0  0  0  0  0  0  0
   12.4442    1.8526    0.0000 C   0  0  2  0  0  0  0  0  0  0  0  0
   12.4442    2.9376    0.0000 C   0  0  0  0  0  0  0  0  0  0  0  0
    3.8818    2.3843    0.0000 C   0  0  0  0  0  0  0  0  0  0  0  0
    2.6925    0.3862    0.0000 C   0  0  0  0  0  0  0  0  0  0  0  0
    6.1712    4.3951    0.0000 C   0  0  0  0  0  0  0  0  0  0  0  0
    4.7064   -4.0044    0.0000 C   0  0  0  0  0  0  0  0  0  0  0  0
   13.3083    1.3493    0.0000 C   0  0  0  0  0  0  0  0  0  0  0  0
    5.3051    4.8951    0.0000 C   0  0  1  0  0  0  0  0  0  0  0  0
    3.4848    3.3021    0.0000 C   0  0  0  0  0  0  0  0  0  0  0  0
    2.0000    1.1077    0.0000 C   0  0  0  0  0  0  0  0  0  0  0  0
    4.1224   -4.8162    0.0000 C   0  0  2  0  0  0  0  0  0  0  0  0
    5.3051    5.8951    0.0000 C   0  0  0  0  0  0  0  0  0  0  0  0
    4.4391    4.3951    0.0000 C   0  0  0  0  0  0  0  0  0  0  0  0
    4.9342   -5.4001    0.0000 C   0  0  0  0  0  0  0  0  0  0  0  0
    3.3106   -4.2322    0.0000 C   0  0  0  0  0  0  0  0  0  0  0  0
    4.4391    6.3951    0.0000 C   0  0  0  0  0  0  0  0  0  0  0  0
    4.8344   -6.3951    0.0000 C   0  0  0  0  0  0  0  0  0  0  0  0
    5.9538    2.0043    0.0000 H   0  0  0  0  0  0  0  0  0  0  0  0
    8.5902    0.8946    0.0000 H   0  0  0  0  0  0  0  0  0  0  0  0
    4.2336   -0.3462    0.0000 H   0  0  0  0  0  0  0  0  0  0  0  0
    7.6931   -0.1967    0.0000 H   0  0  0  0  0  0  0  0  0  0  0  0
    8.3105    0.3573    0.0000 H   0  0  0  0  0  0  0  0  0  0  0  0
    4.6560    1.4215    0.0000 H   0  0  0  0  0  0  0  0  0  0  0  0
    8.7627    1.0452    0.0000 H   0  0  0  0  0  0  0  0  0  0  0  0
    4.4083    1.0854    0.0000 H   0  0  0  0  0  0  0  0  0  0  0  0
    7.0116   -1.9395    0.0000 H   0  0  0  0  0  0  0  0  0  0  0  0
    7.0790   -1.1441    0.0000 H   0  0  0  0  0  0  0  0  0  0  0  0
    7.0372    3.5151    0.0000 H   0  0  0  0  0  0  0  0  0  0  0  0
    9.5086    2.4758    0.0000 H   0  0  0  0  0  0  0  0  0  0  0  0
    5.1352   -2.8457    0.0000 H   0  0  0  0  0  0  0  0  0  0  0  0
    8.4401    3.7051    0.0000 H   0  0  0  0  0  0  0  0  0  0  0  0
    7.0462   -1.2404    0.0000 H   0  0  0  0  0  0  0  0  0  0  0  0
    7.7229   -0.6828    0.0000 H   0  0  0  0  0  0  0  0  0  0  0  0
    7.1653   -0.0061    0.0000 H   0  0  0  0  0  0  0  0  0  0  0  0
    5.7887   -2.9824    0.0000 H   0  0  0  0  0  0  0  0  0  0  0  0
    6.5138   -2.6487    0.0000 H   0  0  0  0  0  0  0  0  0  0  0  0
    9.2586    0.8907    0.0000 H   0  0  0  0  0  0  0  0  0  0  0  0
   10.0568    0.8815    0.0000 H   0  0  0  0  0  0  0  0  0  0  0  0
    5.7838    2.5535    0.0000 H   0  0  0  0  0  0  0  0  0  0  0  0
   10.5594    3.7659    0.0000 H   0  0  0  0  0  0  0  0  0  0  0  0
    3.1873   -1.9562    0.0000 H   0  0  0  0  0  0  0  0  0  0  0  0
    9.6865    4.6062    0.0000 H   0  0  0  0  0  0  0  0  0  0  0  0
    8.8370    4.8233    0.0000 H   0  0  0  0  0  0  0  0  0  0  0  0
    8.6199    3.9738    0.0000 H   0  0  0  0  0  0  0  0  0  0  0  0
   11.8940    3.9519    0.0000 H   0  0  0  0  0  0  0  0  0  0  0  0
   11.0958    3.9427    0.0000 H   0  0  0  0  0  0  0  0  0  0  0  0
   11.0958    0.8476    0.0000 H   0  0  0  0  0  0  0  0  0  0  0  0
   11.8940    0.8384    0.0000 H   0  0  0  0  0  0  0  0  0  0  0  0
    8.4401    4.7051    0.0000 H   0  0  0  0  0  0  0  0  0  0  0  0
    9.8369    4.8349    0.0000 H   0  0  0  0  0  0  0  0  0  0  0  0
   12.9817    2.1616    0.0000 H   0  0  0  0  0  0  0  0  0  0  0  0
   13.0550    2.8316    0.0000 H   0  0  0  0  0  0  0  0  0  0  0  0
   12.6532    3.5213    0.0000 H   0  0  0  0  0  0  0  0  0  0  0  0
   12.9962    0.8136    0.0000 H   0  0  0  0  0  0  0  0  0  0  0  0
   13.8440    1.0372    0.0000 H   0  0  0  0  0  0  0  0  0  0  0  0
   13.6203    1.8850    0.0000 H   0  0  0  0  0  0  0  0  0  0  0  0
    5.3051    4.2751    0.0000 H   0  0  0  0  0  0  0  0  0  0  0  0
    4.0539    3.5482    0.0000 H   0  0  0  0  0  0  0  0  0  0  0  0
    3.2387    3.8712    0.0000 H   0  0  0  0  0  0  0  0  0  0  0  0
    2.9158    3.0560    0.0000 H   0  0  0  0  0  0  0  0  0  0  0  0
    2.4473    1.5370    0.0000 H   0  0  0  0  0  0  0  0  0  0  0  0
    1.5707    1.5550    0.0000 H   0  0  0  0  0  0  0  0  0  0  0  0
    1.5527    0.6784    0.0000 H   0  0  0  0  0  0  0  0  0  0  0  0
    5.9157    5.7875    0.0000 H   0  0  0  0  0  0  0  0  0  0  0  0
    5.5172    6.4778    0.0000 H   0  0  0  0  0  0  0  0  0  0  0  0
    4.1291    4.9321    0.0000 H   0  0  0  0  0  0  0  0  0  0  0  0
    3.9022    4.0851    0.0000 H   0  0  0  0  0  0  0  0  0  0  0  0
    4.7491    3.8582    0.0000 H   0  0  0  0  0  0  0  0  0  0  0  0
    5.5310   -5.5682    0.0000 H   0  0  0  0  0  0  0  0  0  0  0  0
    5.2034   -4.8416    0.0000 H   0  0  0  0  0  0  0  0  0  0  0  0
    3.6727   -3.7289    0.0000 H   0  0  0  0  0  0  0  0  0  0  0  0
    2.8074   -3.8702    0.0000 H   0  0  0  0  0  0  0  0  0  0  0  0
    2.9486   -4.7355    0.0000 H   0  0  0  0  0  0  0  0  0  0  0  0
    3.7933   -6.1932    0.0000 H   0  0  0  0  0  0  0  0  0  0  0  0
    4.7491    6.9321    0.0000 H   0  0  0  0  0  0  0  0  0  0  0  0
    3.9022    6.7051    0.0000 H   0  0  0  0  0  0  0  0  0  0  0  0
    4.1291    5.8582    0.0000 H   0  0  0  0  0  0  0  0  0  0  0  0
    4.2175   -6.3332    0.0000 H   0  0  0  0  0  0  0  0  0  0  0  0
    4.7725   -7.0120    0.0000 H   0  0  0  0  0  0  0  0  0  0  0  0
    5.4513   -6.4570    0.0000 H   0  0  0  0  0  0  0  0  0  0  0  0
  1 16  1  0  0  0  0
  1 23  1  0  0  0  0
 19  2  1  1  0  0  0
  2 78  1  0  0  0  0
 24  3  1  1  0  0  0
  3 42  1  0  0  0  0
 23  4  1  1  0  0  0
  4 80  1  0  0  0  0
 26  5  1  1  0  0  0
  5 43  1  0  0  0  0
 28  6  1  1  0  0  0
  6 44  1  0  0  0  0
 30  7  1  6  0  0  0
  7 45  1  0  0  0  0
 31  8  1  6  0  0  0
  8 88  1  0  0  0  0
 34  9  1  6  0  0  0
  9 89  1  0  0  0  0
 10 42  2  0  0  0  0
 11 43  2  0  0  0  0
 12 44  2  0  0  0  0
 13 45  2  0  0  0  0
 50 14  1  6  0  0  0
 14113  1  0  0  0  0
 15 35  1  0  0  0  0
 15 36  1  0  0  0  0
 15 39  1  0  0  0  0
 16 17  1  0  0  0  0
 16 18  1  0  0  0  0
 16 22  1  6  0  0  0
 17 21  1  0  0  0  0
 17 27  1  0  0  0  0
 17 32  1  6  0  0  0
 18 19  1  0  0  0  0
 18 24  1  0  0  0  0
 18 57  1  6  0  0  0
 19 20  1  0  0  0  0
 19 28  1  0  0  0  0
 20 22  1  0  0  0  0
 20 25  1  0  0  0  0
 20 58  1  1  0  0  0
 21 23  1  0  0  0  0
 21 26  1  0  0  0  0
 21 59  1  6  0  0  0
 22 60  1  0  0  0  0
 22 61  1  0  0  0  0
 23 30  1  0  0  0  0
 24 26  1  0  0  0  0
 24 62  1  0  0  0  0
 25 29  1  0  0  0  0
 25 35  1  0  0  0  0
 25 63  1  6  0  0  0
 26 64  1  0  0  0  0
 27 33  1  0  0  0  0
 27 65  1  0  0  0  0
 27 66  1  0  0  0  0
 28 31  1  0  0  0  0
 28 67  1  0  0  0  0
 29 31  1  0  0  0  0
 29 34  1  0  0  0  0
 29 68  1  1  0  0  0
 30 33  1  0  0  0  0
 30 69  1  0  0  0  0
 31 70  1  0  0  0  0
 32 71  1  0  0  0  0
 32 72  1  0  0  0  0
 32 73  1  0  0  0  0
 33 74  1  0  0  0  0
 33 75  1  0  0  0  0
 34 36  1  0  0  0  0
 34 37  1  0  0  0  0
 35 76  1  0  0  0  0
 35 77  1  0  0  0  0
 36 38  1  0  0  0  0
 36 79  1  1  0  0  0
 37 81  1  0  0  0  0
 37 82  1  0  0  0  0
 37 83  1  0  0  0  0
 38 41  1  0  0  0  0
 38 84  1  0  0  0  0
 38 85  1  0  0  0  0
 39 40  1  0  0  0  0
 39 86  1  0  0  0  0
 39 87  1  0  0  0  0
 40 41  1  0  0  0  0
 40 46  1  6  0  0  0
 40 90  1  0  0  0  0
 41 91  1  0  0  0  0
 41 92  1  0  0  0  0
 42 48  1  0  0  0  0
 43 49  1  0  0  0  0
 44 47  1  0  0  0  0
 45 50  1  0  0  0  0
 46 93  1  0  0  0  0
 46 94  1  0  0  0  0
 46 95  1  0  0  0  0
 47 51  1  0  0  0  0
 47 52  1  6  0  0  0
 47 96  1  0  0  0  0
 48 97  1  0  0  0  0
 48 98  1  0  0  0  0
 48 99  1  0  0  0  0
 49100  1  0  0  0  0
 49101  1  0  0  0  0
 49102  1  0  0  0  0
 50 53  1  0  0  0  0
 50 54  1  0  0  0  0
 51 55  1  0  0  0  0
 51103  1  0  0  0  0
 51104  1  0  0  0  0
 52105  1  0  0  0  0
 52106  1  0  0  0  0
 52107  1  0  0  0  0
 53 56  1  0  0  0  0
 53108  1  0  0  0  0
 53109  1  0  0  0  0
 54110  1  0  0  0  0
 54111  1  0  0  0  0
 54112  1  0  0  0  0
 55114  1  0  0  0  0
 55115  1  0  0  0  0
 55116  1  0  0  0  0
 56117  1  0  0  0  0
 56118  1  0  0  0  0
 56119  1  0  0  0  0
M  END
> <PUBCHEM_COMPOUND_CID>
8931

> <PUBCHEM_COMPOUND_CANONICALIZED>
1

> <PUBCHEM_CACTVS_COMPLEXITY>
1630

> <PUBCHEM_CACTVS_HBOND_ACCEPTOR>
15

> <PUBCHEM_CACTVS_HBOND_DONOR>
5

> <PUBCHEM_CACTVS_ROTATABLE_BOND>
12

> <PUBCHEM_CACTVS_SUBSKEYS>
AAADcfB+PAAAAAAAAAAAAAAAAAAAAaIAAAA8eMECBIkAAGCwAAAAHgAACAAAD3zhgAYCCAMABgAIAACQCAIAAAAAAAAAAAFIAAATEBIAgAAGQAAFAACXAAHw8P8PgAAAAAAAAADCAAYQADCAAYQADAAAAA==

> <PUBCHEM_IUPAC_OPENEYE_NAME>
[(1S,2S,6S,9S,10S,11R,12R,13S,14S,15S,16S,17R,18R,19S,22S,23S,25R)-16,17-diacetoxy-10,12,14,23-tetrahydroxy-6,10,19-trimethyl-13-[(2R)-2-methylbutanoyl]oxy-24-oxa-4-azaheptacyclo[12.12.0.02,11.04,9.015,25.018,23.019,25]hexacosan-22-yl] (2S)-2-hydroxy-2-methyl-butanoate

> <PUBCHEM_IUPAC_CAS_NAME>
(2S)-2-hydroxy-2-methylbutanoic acid [(1S,2S,6S,9S,10S,11R,12R,13S,14S,15S,16S,17R,18R,19S,22S,23S,25R)-16,17-diacetyloxy-10,12,14,23-tetrahydroxy-6,10,19-trimethyl-13-[(2R)-2-methyl-1-oxobutoxy]-24-oxa-4-azaheptacyclo[12.12.0.02,11.04,9.015,25.018,23.019,25]hexacosan-22-yl] ester

> <PUBCHEM_IUPAC_NAME_MARKUP>
[(1<I>S</I>,2<I>S</I>,6<I>S</I>,9<I>S</I>,10<I>S</I>,11<I>R</I>,12<I>R</I>,13<I>S</I>,14<I>S</I>,15<I>S</I>,16<I>S</I>,17<I>R</I>,18<I>R</I>,19<I>S</I>,22<I>S</I>,23<I>S</I>,25<I>R</I>)-16,17-diacetyloxy-10,12,14,23-tetrahydroxy-6,10,19-trimethyl-13-[(2<I>R</I>)-2-methylbutanoyl]oxy-24-oxa-4-azaheptacyclo[12.12.0.0<SUP>2,11</SUP>.0<SUP>4,9</SUP>.0<SUP>15,25</SUP>.0<SUP>18,23</SUP>.0<SUP>19,25</SUP>]hexacosan-22-yl] (2<I>S</I>)-2-hydroxy-2-methylbutanoate

> <PUBCHEM_IUPAC_NAME>
[(1S,2S,6S,9S,10S,11R,12R,13S,14S,15S,16S,17R,18R,19S,22S,23S,25R)-16,17-diacetyloxy-10,12,14,23-tetrahydroxy-6,10,19-trimethyl-13-[(2R)-2-methylbutanoyl]oxy-24-oxa-4-azaheptacyclo[12.12.0.02,11.04,9.015,25.018,23.019,25]hexacosan-22-yl] (2S)-2-hydroxy-2-methylbutanoate

> <PUBCHEM_IUPAC_SYSTEMATIC_NAME>
[(1S,2S,6S,9S,10S,11R,12R,13S,14S,15S,16S,17R,18R,19S,22S,23S,25R)-16,17-diacetyloxy-6,10,19-trimethyl-13-[(2R)-2-methylbutanoyl]oxy-10,12,14,23-tetrakis(oxidanyl)-24-oxa-4-azaheptacyclo[12.12.0.02,11.04,9.015,25.018,23.019,25]hexacosan-22-yl] (2S)-2-methyl-2-oxidanyl-butanoate

> <PUBCHEM_IUPAC_TRADITIONAL_NAME>
(2S)-2-hydroxy-2-methyl-butyric acid [(1S,2S,6S,9S,10S,11R,12R,13S,14S,15S,16S,17R,18R,19S,22S,23S,25R)-16,17-diacetoxy-10,12,14,23-tetrahydroxy-6,10,19-trimethyl-13-[(2R)-2-methylbutanoyl]oxy-24-oxa-4-azaheptacyclo[12.12.0.02,11.04,9.015,25.018,23.019,25]hexacosan-22-yl] ester

> <PUBCHEM_IUPAC_INCHI>
InChI=1S/C41H63NO14/c1-10-20(4)34(46)55-33-28(45)27-23(18-42-17-19(3)12-13-25(42)38(27,9)49)24-16-39-32(40(24,33)50)30(53-22(6)44)29(52-21(5)43)31-36(39,7)15-14-26(41(31,51)56-39)54-35(47)37(8,48)11-2/h19-20,23-33,45,48-51H,10-18H2,1-9H3/t19-,20+,23-,24-,25-,26-,27+,28+,29-,30+,31-,32+,33-,36-,37-,38+,39+,40-,41+/m0/s1

> <PUBCHEM_IUPAC_INCHIKEY>
HYTGGNIMZXFORS-MGYKWWNKSA-N

> <PUBCHEM_XLOGP3_AA>
2.1

> <PUBCHEM_EXACT_MASS>
793.424856

> <PUBCHEM_MOLECULAR_FORMULA>
C41H63NO14

> <PUBCHEM_MOLECULAR_WEIGHT>
793.9

> <PUBCHEM_OPENEYE_CAN_SMILES>
CCC(C)C(=O)OC1C(C2C(CN3CC(CCC3C2(C)O)C)C4C1(C5C(C(C6C7(C5(C4)OC6(C(CC7)OC(=O)C(C)(CC)O)O)C)OC(=O)C)OC(=O)C)O)O

> <PUBCHEM_OPENEYE_ISO_SMILES>
CC[C@@H](C)C(=O)O[C@H]1[C@@H]([C@H]2[C@@H](CN3C[C@H](CC[C@H]3[C@@]2(C)O)C)[C@H]4[C@@]1([C@@H]5[C@@H]([C@@H]([C@H]6[C@]7([C@]5(C4)O[C@@]6([C@H](CC7)OC(=O)[C@](C)(CC)O)O)C)OC(=O)C)OC(=O)C)O)O

> <PUBCHEM_CACTVS_TPSA>
219

> <PUBCHEM_MONOISOTOPIC_WEIGHT>
793.424856

> <PUBCHEM_TOTAL_CHARGE>
0

> <PUBCHEM_HEAVY_ATOM_COUNT>
56

> <PUBCHEM_ATOM_DEF_STEREO_COUNT>
19

> <PUBCHEM_ATOM_UDEF_STEREO_COUNT>
0

> <PUBCHEM_BOND_DEF_STEREO_COUNT>
0

> <PUBCHEM_BOND_UDEF_STEREO_COUNT>
0

> <PUBCHEM_ISOTOPIC_ATOM_COUNT>
0

> <PUBCHEM_COMPONENT_COUNT>
1

> <PUBCHEM_CACTVS_TAUTO_COUNT>
-1

> <PUBCHEM_COORDINATE_TYPE>
1
5
255

> <PUBCHEM_BONDANNOTATIONS>
50  14  6
16  22  6
17  32  6
18  57  6
19  2  5
20  58  5
21  59  6
25  63  6
29  68  5
24  3  5
36  79  5
23  4  5
40  46  6
47  52  6
26  5  5
28  6  5
30  7  6
31  8  6
34  9  6

$$$$
