5365678
  -OEChem-09052013343D

 55 54  0     0  0  0  0  0  0999 V2000
    1.2481    2.7351    1.0583 O   0  0  0  0  0  0  0  0  0  0  0  0
    2.4621    1.3465    2.4436 O   0  0  0  0  0  0  0  0  0  0  0  0
    1.8768   -2.2039   -2.1282 C   0  0  0  0  0  0  0  0  0  0  0  0
    2.9956   -1.4422   -1.4094 C   0  0  0  0  0  0  0  0  0  0  0  0
    0.6666   -2.5786   -1.2677 C   0  0  0  0  0  0  0  0  0  0  0  0
    2.6141   -0.0678   -0.8512 C   0  0  0  0  0  0  0  0  0  0  0  0
    1.0280   -3.4127   -0.0352 C   0  0  0  0  0  0  0  0  0  0  0  0
    3.7896    0.6771   -0.2121 C   0  0  0  0  0  0  0  0  0  0  0  0
   -0.2029   -3.8458    0.7704 C   0  0  0  0  0  0  0  0  0  0  0  0
    3.3852    2.0479    0.3277 C   0  0  0  0  0  0  0  0  0  0  0  0
   -0.9653   -2.6831    1.3395 C   0  0  0  0  0  0  0  0  0  0  0  0
    2.3279    1.9788    1.4036 C   0  0  0  0  0  0  0  0  0  0  0  0
   -2.2607   -2.3823    1.1574 C   0  0  0  0  0  0  0  0  0  0  0  0
   -2.7076    2.4268   -1.4740 C   0  0  0  0  0  0  0  0  0  0  0  0
   -3.0210   -1.2210    1.7262 C   0  0  0  0  0  0  0  0  0  0  0  0
   -3.7959    1.8566   -0.5593 C   0  0  0  0  0  0  0  0  0  0  0  0
   -1.9203    1.3810   -2.2688 C   0  0  0  0  0  0  0  0  0  0  0  0
   -3.5769   -0.3352    0.6493 C   0  0  0  0  0  0  0  0  0  0  0  0
   -3.2489    0.9582    0.5118 C   0  0  0  0  0  0  0  0  0  0  0  0
   -0.8832    1.9886   -3.2008 C   0  0  0  0  0  0  0  0  0  0  0  0
    0.1886    2.7759    2.0187 C   0  0  0  0  0  0  0  0  0  0  0  0
    1.5283   -1.6059   -2.9792 H   0  0  0  0  0  0  0  0  0  0  0  0
    2.3034   -3.1223   -2.5508 H   0  0  0  0  0  0  0  0  0  0  0  0
    3.4143   -2.0602   -0.6069 H   0  0  0  0  0  0  0  0  0  0  0  0
    3.8122   -1.3020   -2.1299 H   0  0  0  0  0  0  0  0  0  0  0  0
    0.1489   -1.6608   -0.9666 H   0  0  0  0  0  0  0  0  0  0  0  0
   -0.0388   -3.1420   -1.8912 H   0  0  0  0  0  0  0  0  0  0  0  0
    2.1964    0.5435   -1.6608 H   0  0  0  0  0  0  0  0  0  0  0  0
    1.8182   -0.1974   -0.1094 H   0  0  0  0  0  0  0  0  0  0  0  0
    1.6972   -2.8467    0.6230 H   0  0  0  0  0  0  0  0  0  0  0  0
    1.5738   -4.3099   -0.3515 H   0  0  0  0  0  0  0  0  0  0  0  0
    4.2008    0.0689    0.6027 H   0  0  0  0  0  0  0  0  0  0  0  0
    4.5882    0.8068   -0.9519 H   0  0  0  0  0  0  0  0  0  0  0  0
   -0.8559   -4.4612    0.1401 H   0  0  0  0  0  0  0  0  0  0  0  0
    0.1251   -4.4810    1.6017 H   0  0  0  0  0  0  0  0  0  0  0  0
    3.0257    2.6721   -0.4994 H   0  0  0  0  0  0  0  0  0  0  0  0
    4.2548    2.5617    0.7526 H   0  0  0  0  0  0  0  0  0  0  0  0
   -0.3831   -2.0197    1.9778 H   0  0  0  0  0  0  0  0  0  0  0  0
   -2.8439   -3.0558    0.5301 H   0  0  0  0  0  0  0  0  0  0  0  0
   -2.0065    3.0227   -0.8751 H   0  0  0  0  0  0  0  0  0  0  0  0
   -3.1819    3.1229   -2.1773 H   0  0  0  0  0  0  0  0  0  0  0  0
   -3.8540   -1.6077    2.3250 H   0  0  0  0  0  0  0  0  0  0  0  0
   -2.3831   -0.6497    2.4119 H   0  0  0  0  0  0  0  0  0  0  0  0
   -4.5388    1.3281   -1.1691 H   0  0  0  0  0  0  0  0  0  0  0  0
   -4.3225    2.6873   -0.0743 H   0  0  0  0  0  0  0  0  0  0  0  0
   -1.4068    0.6981   -1.5822 H   0  0  0  0  0  0  0  0  0  0  0  0
   -2.6167    0.7750   -2.8604 H   0  0  0  0  0  0  0  0  0  0  0  0
   -4.2868   -0.7817   -0.0430 H   0  0  0  0  0  0  0  0  0  0  0  0
   -2.5486    1.4073    1.2110 H   0  0  0  0  0  0  0  0  0  0  0  0
   -0.1472    2.5711   -2.6374 H   0  0  0  0  0  0  0  0  0  0  0  0
   -0.3510    1.2005   -3.7426 H   0  0  0  0  0  0  0  0  0  0  0  0
   -1.3561    2.6486   -3.9347 H   0  0  0  0  0  0  0  0  0  0  0  0
   -0.6293    3.3669    1.5983 H   0  0  0  0  0  0  0  0  0  0  0  0
    0.5336    3.2564    2.9390 H   0  0  0  0  0  0  0  0  0  0  0  0
   -0.1779    1.7655    2.2246 H   0  0  0  0  0  0  0  0  0  0  0  0
  1 12  1  0  0  0  0
  1 21  1  0  0  0  0
  2 12  2  0  0  0  0
  3  4  1  0  0  0  0
  3  5  1  0  0  0  0
  3 22  1  0  0  0  0
  3 23  1  0  0  0  0
  4  6  1  0  0  0  0
  4 24  1  0  0  0  0
  4 25  1  0  0  0  0
  5  7  1  0  0  0  0
  5 26  1  0  0  0  0
  5 27  1  0  0  0  0
  6  8  1  0  0  0  0
  6 28  1  0  0  0  0
  6 29  1  0  0  0  0
  7  9  1  0  0  0  0
  7 30  1  0  0  0  0
  7 31  1  0  0  0  0
  8 10  1  0  0  0  0
  8 32  1  0  0  0  0
  8 33  1  0  0  0  0
  9 11  1  0  0  0  0
  9 34  1  0  0  0  0
  9 35  1  0  0  0  0
 10 12  1  0  0  0  0
 10 36  1  0  0  0  0
 10 37  1  0  0  0  0
 11 13  2  0  0  0  0
 11 38  1  0  0  0  0
 13 15  1  0  0  0  0
 13 39  1  0  0  0  0
 14 16  1  0  0  0  0
 14 17  1  0  0  0  0
 14 40  1  0  0  0  0
 14 41  1  0  0  0  0
 15 18  1  0  0  0  0
 15 42  1  0  0  0  0
 15 43  1  0  0  0  0
 16 19  1  0  0  0  0
 16 44  1  0  0  0  0
 16 45  1  0  0  0  0
 17 20  1  0  0  0  0
 17 46  1  0  0  0  0
 17 47  1  0  0  0  0
 18 19  2  0  0  0  0
 18 48  1  0  0  0  0
 19 49  1  0  0  0  0
 20 50  1  0  0  0  0
 20 51  1  0  0  0  0
 20 52  1  0  0  0  0
 21 53  1  0  0  0  0
 21 54  1  0  0  0  0
 21 55  1  0  0  0  0
M  END
> <PUBCHEM_COMPOUND_CID>
5365678

> <PUBCHEM_CONFORMER_RMSD>
1.4

> <PUBCHEM_CONFORMER_DIVERSEORDER>
2
6
102
30
91
22
1
38
80
92
111
57
41
9
59
67
20
45
62
19
37
56
99
33
13
28
5
96
50
31
73
44
114
52
110
107
15
18
115
69
51
109
16
32
84
119
87
108
55
8
79
42
81
97
12
88
94
74
24
113
118
61
17
85
49
4
83
100
104
86
36
101
98
120
65
90
117
112
72
76
75
93
54
103
105
70
63
64
121
77
11
89
35
43
95
53
40
25
60
82
3
58
29
47
23
106
71
46
78
14
66
48
27
39
34
21
26
10
68
116
7

> <PUBCHEM_MMFF94_PARTIAL_CHARGES>
16
1 -0.43
10 0.06
11 -0.29
12 0.66
13 -0.29
15 0.28
16 0.14
18 -0.29
19 -0.29
2 -0.57
21 0.28
38 0.15
39 0.15
48 0.15
49 0.15
9 0.14

> <PUBCHEM_EFFECTIVE_ROTOR_COUNT>
15

> <PUBCHEM_PHARMACOPHORE_FEATURES>
3
1 2 acceptor
1 20 hydrophobe
4 14 16 17 19 hydrophobe

> <PUBCHEM_HEAVY_ATOM_COUNT>
21

> <PUBCHEM_ATOM_DEF_STEREO_COUNT>
0

> <PUBCHEM_ATOM_UDEF_STEREO_COUNT>
0

> <PUBCHEM_BOND_DEF_STEREO_COUNT>
2

> <PUBCHEM_BOND_UDEF_STEREO_COUNT>
0

> <PUBCHEM_ISOTOPIC_ATOM_COUNT>
0

> <PUBCHEM_COMPONENT_COUNT>
1

> <PUBCHEM_CACTVS_TAUTO_COUNT>
1

> <PUBCHEM_CONFORMER_ID>
0051DFAE00000002

> <PUBCHEM_MMFF94_ENERGY>
4.585

> <PUBCHEM_FEATURE_SELFOVERLAP>
15.224

> <PUBCHEM_SHAPE_FINGERPRINT>
11427363 43 15518961397717022571
12100795 323 17837776994581167377
13402501 40 18341345481776613331
13422730 73 17975377310412101157
13615921 28 17474941035074824503
14251757 17 18265343823686957744
14251764 3 18336808879752350519
17921350 177 18336535123190729712
19026451 147 17840283550833572295
19930381 70 17988649541172813359
21315764 21 16524148229285652677
238 59 18201990015202482871
2803657 2 16749881208936674187
3187 122 17687190102834990587
35225 105 17464491585838801876
3524813 1 18264508237868456319
4742675 86 16336365339975762624
5283178 26 18268439116539130681

> <PUBCHEM_SHAPE_MULTIPOLES>
420.43
6.6
5.18
2.82
1.28
3.01
-1.05
-2.82
-0.1
-0.54
1.06
0.04
-1.68
3.72

> <PUBCHEM_SHAPE_SELFOVERLAP>
777.935

> <PUBCHEM_SHAPE_VOLUME>
263.7

> <PUBCHEM_COORDINATE_TYPE>
2
5
10

$$$$
