77466
  -OEChem-09052013023D

 13 13  0     0  0  0  0  0  0999 V2000
   -2.3449   -0.5390   -0.0501 O   0  0  0  0  0  0  0  0  0  0  0  0
    2.3448   -0.5391    0.0508 O   0  0  0  0  0  0  0  0  0  0  0  0
   -0.7496    1.2667    0.1492 C   0  0  0  0  0  0  0  0  0  0  0  0
    0.7499    1.2666   -0.1494 C   0  0  0  0  0  0  0  0  0  0  0  0
   -0.0001   -1.1091   -0.0006 C   0  0  0  0  0  0  0  0  0  0  0  0
   -1.1783   -0.1729    0.0054 C   0  0  0  0  0  0  0  0  0  0  0  0
    1.1783   -0.1730   -0.0054 C   0  0  0  0  0  0  0  0  0  0  0  0
   -1.2957    1.9072   -0.5477 H   0  0  0  0  0  0  0  0  0  0  0  0
   -0.9399    1.5856    1.1786 H   0  0  0  0  0  0  0  0  0  0  0  0
    1.2960    1.9071    0.5474 H   0  0  0  0  0  0  0  0  0  0  0  0
    0.9403    1.5854   -1.1788 H   0  0  0  0  0  0  0  0  0  0  0  0
    0.0039   -1.7107    0.9098 H   0  0  0  0  0  0  0  0  0  0  0  0
   -0.0041   -1.7097   -0.9116 H   0  0  0  0  0  0  0  0  0  0  0  0
  1  6  2  0  0  0  0
  2  7  2  0  0  0  0
  3  4  1  0  0  0  0
  3  6  1  0  0  0  0
  3  8  1  0  0  0  0
  3  9  1  0  0  0  0
  4  7  1  0  0  0  0
  4 10  1  0  0  0  0
  4 11  1  0  0  0  0
  5  6  1  0  0  0  0
  5  7  1  0  0  0  0
  5 12  1  0  0  0  0
  5 13  1  0  0  0  0
M  END
> <PUBCHEM_COMPOUND_CID>
77466

> <PUBCHEM_CONFORMER_RMSD>
0.4

> <PUBCHEM_CONFORMER_DIVERSEORDER>
1

> <PUBCHEM_MMFF94_PARTIAL_CHARGES>
7
1 -0.57
2 -0.57
3 0.06
4 0.06
5 0.12
6 0.45
7 0.45

> <PUBCHEM_EFFECTIVE_ROTOR_COUNT>
0.6

> <PUBCHEM_PHARMACOPHORE_FEATURES>
4
1 1 acceptor
1 2 acceptor
1 5 anion
5 3 4 5 6 7 rings

> <PUBCHEM_HEAVY_ATOM_COUNT>
7

> <PUBCHEM_ATOM_DEF_STEREO_COUNT>
0

> <PUBCHEM_ATOM_UDEF_STEREO_COUNT>
0

> <PUBCHEM_BOND_DEF_STEREO_COUNT>
0

> <PUBCHEM_BOND_UDEF_STEREO_COUNT>
0

> <PUBCHEM_ISOTOPIC_ATOM_COUNT>
0

> <PUBCHEM_COMPONENT_COUNT>
1

> <PUBCHEM_CACTVS_TAUTO_COUNT>
5

> <PUBCHEM_CONFORMER_ID>
00012E9A00000001

> <PUBCHEM_MMFF94_ENERGY>
5.6687

> <PUBCHEM_FEATURE_SELFOVERLAP>
20.297

> <PUBCHEM_SHAPE_FINGERPRINT>
16714656 1 18412548682481534422
18185500 45 18410854377817664639
20096714 4 18194404617615834429
21040471 1 17978510059193909869
23552423 10 18044667394991677070
29004967 10 18408888459606521475

> <PUBCHEM_SHAPE_MULTIPOLES>
132.32
2.42
1.35
0.6
0
0.32
0
-0.58
0
0
0
0
0.02
-0.06

> <PUBCHEM_SHAPE_SELFOVERLAP>
265.353

> <PUBCHEM_SHAPE_VOLUME>
79.7

> <PUBCHEM_COORDINATE_TYPE>
2
5
10

$$$$
