619267
  -OEChem-09052012553D

 37 38  0     0  0  0  0  0  0999 V2000
    4.8906   -0.7950   -1.2971 O   0  0  0  0  0  0  0  0  0  0  0  0
   -3.2809   -1.9181   -0.6062 O   0  0  0  0  0  0  0  0  0  0  0  0
   -5.0527    0.1755   -0.1570 O   0  0  0  0  0  0  0  0  0  0  0  0
    3.3120    0.2369    0.0597 N   0  0  0  0  0  0  0  0  0  0  0  0
    0.5335    1.0551    0.1848 C   0  0  0  0  0  0  0  0  0  0  0  0
    1.2443    0.7970   -1.1574 C   0  0  0  0  0  0  0  0  0  0  0  0
    1.1844    0.2208    1.3047 C   0  0  0  0  0  0  0  0  0  0  0  0
    2.7489    1.0315   -1.0335 C   0  0  0  0  0  0  0  0  0  0  0  0
    2.6915    0.4681    1.3697 C   0  0  0  0  0  0  0  0  0  0  0  0
   -0.9617    0.8165    0.0929 C   0  0  0  0  0  0  0  0  0  0  0  0
    4.3716   -0.6347   -0.1895 C   0  0  0  0  0  0  0  0  0  0  0  0
   -1.4439   -0.4536   -0.2164 C   0  0  0  0  0  0  0  0  0  0  0  0
   -1.8479    1.8678    0.3177 C   0  0  0  0  0  0  0  0  0  0  0  0
   -2.8187   -0.6734   -0.3014 C   0  0  0  0  0  0  0  0  0  0  0  0
   -3.2227    1.6480    0.2326 C   0  0  0  0  0  0  0  0  0  0  0  0
    4.8925   -1.4187    0.9884 C   0  0  0  0  0  0  0  0  0  0  0  0
   -3.7081    0.3775   -0.0770 C   0  0  0  0  0  0  0  0  0  0  0  0
   -3.5326   -2.8011    0.4851 C   0  0  0  0  0  0  0  0  0  0  0  0
    0.6951    2.1133    0.4365 H   0  0  0  0  0  0  0  0  0  0  0  0
    0.8336    1.4513   -1.9359 H   0  0  0  0  0  0  0  0  0  0  0  0
    1.0768   -0.2354   -1.4895 H   0  0  0  0  0  0  0  0  0  0  0  0
    1.0126   -0.8500    1.1367 H   0  0  0  0  0  0  0  0  0  0  0  0
    0.7304    0.4669    2.2723 H   0  0  0  0  0  0  0  0  0  0  0  0
    3.2384    0.7923   -1.9828 H   0  0  0  0  0  0  0  0  0  0  0  0
    2.9570    2.0855   -0.8145 H   0  0  0  0  0  0  0  0  0  0  0  0
    2.8956    1.5096    1.6455 H   0  0  0  0  0  0  0  0  0  0  0  0
    3.1279   -0.1613    2.1471 H   0  0  0  0  0  0  0  0  0  0  0  0
   -0.7636   -1.2820   -0.3952 H   0  0  0  0  0  0  0  0  0  0  0  0
   -1.4855    2.8631    0.5596 H   0  0  0  0  0  0  0  0  0  0  0  0
   -3.9105    2.4707    0.4086 H   0  0  0  0  0  0  0  0  0  0  0  0
    5.2774   -0.7401    1.7541 H   0  0  0  0  0  0  0  0  0  0  0  0
    5.7134   -2.0644    0.6613 H   0  0  0  0  0  0  0  0  0  0  0  0
    4.1029   -2.0537    1.3988 H   0  0  0  0  0  0  0  0  0  0  0  0
   -5.2117   -0.7476   -0.4191 H   0  0  0  0  0  0  0  0  0  0  0  0
   -4.2705   -2.3722    1.1705 H   0  0  0  0  0  0  0  0  0  0  0  0
   -2.6037   -3.0178    1.0221 H   0  0  0  0  0  0  0  0  0  0  0  0
   -3.9308   -3.7370    0.0837 H   0  0  0  0  0  0  0  0  0  0  0  0
  1 11  2  0  0  0  0
  2 14  1  0  0  0  0
  2 18  1  0  0  0  0
  3 17  1  0  0  0  0
  3 34  1  0  0  0  0
  4  8  1  0  0  0  0
  4  9  1  0  0  0  0
  4 11  1  0  0  0  0
  5  6  1  0  0  0  0
  5  7  1  0  0  0  0
  5 10  1  0  0  0  0
  5 19  1  0  0  0  0
  6  8  1  0  0  0  0
  6 20  1  0  0  0  0
  6 21  1  0  0  0  0
  7  9  1  0  0  0  0
  7 22  1  0  0  0  0
  7 23  1  0  0  0  0
  8 24  1  0  0  0  0
  8 25  1  0  0  0  0
  9 26  1  0  0  0  0
  9 27  1  0  0  0  0
 10 12  2  0  0  0  0
 10 13  1  0  0  0  0
 11 16  1  0  0  0  0
 12 14  1  0  0  0  0
 12 28  1  0  0  0  0
 13 15  2  0  0  0  0
 13 29  1  0  0  0  0
 14 17  2  0  0  0  0
 15 17  1  0  0  0  0
 15 30  1  0  0  0  0
 16 31  1  0  0  0  0
 16 32  1  0  0  0  0
 16 33  1  0  0  0  0
 18 35  1  0  0  0  0
 18 36  1  0  0  0  0
 18 37  1  0  0  0  0
M  END
> <PUBCHEM_COMPOUND_CID>
619267

> <PUBCHEM_CONFORMER_RMSD>
0.6

> <PUBCHEM_CONFORMER_DIVERSEORDER>
1
51
23
12
52
42
35
5
29
48
46
21
4
32
45
16
25
20
17
38
7
36
28
53
55
13
43
40
50
2
47
24
8
6
37
54
26
30
39
9
31
15
18
33
22
41
49
3
14
27
44
19
10
34
11

> <PUBCHEM_MMFF94_PARTIAL_CHARGES>
20
1 -0.57
10 -0.14
11 0.57
12 -0.15
13 -0.15
14 0.08
15 -0.15
16 0.06
17 0.08
18 0.28
2 -0.36
28 0.15
29 0.15
3 -0.53
30 0.15
34 0.45
4 -0.66
5 0.14
8 0.3
9 0.3

> <PUBCHEM_EFFECTIVE_ROTOR_COUNT>
4.2

> <PUBCHEM_PHARMACOPHORE_FEATURES>
5
1 1 acceptor
1 2 acceptor
1 3 donor
6 10 12 13 14 15 17 rings
6 4 5 6 7 8 9 rings

> <PUBCHEM_HEAVY_ATOM_COUNT>
18

> <PUBCHEM_ATOM_DEF_STEREO_COUNT>
0

> <PUBCHEM_ATOM_UDEF_STEREO_COUNT>
0

> <PUBCHEM_BOND_DEF_STEREO_COUNT>
0

> <PUBCHEM_BOND_UDEF_STEREO_COUNT>
0

> <PUBCHEM_ISOTOPIC_ATOM_COUNT>
0

> <PUBCHEM_COMPONENT_COUNT>
1

> <PUBCHEM_CACTVS_TAUTO_COUNT>
3

> <PUBCHEM_CONFORMER_ID>
0009730300000001

> <PUBCHEM_MMFF94_ENERGY>
52.3289

> <PUBCHEM_FEATURE_SELFOVERLAP>
25.371

> <PUBCHEM_SHAPE_FINGERPRINT>
10062212 137 18408881845499641567
10465860 250 17846775174763334976
10616163 171 18410857667773682539
11046707 91 18410008840485591833
11405975 8 18273214205117453992
11796584 16 18342741797562737822
12236239 1 18040436572858071989
124424 183 17561078081686011401
12500047 106 18269549442873608045
12555020 224 18337098013252050615
12633257 1 16271652303059214751
12969540 114 14996290249199027102
13167823 11 18407762538583499422
13296908 3 18059007410160915785
13675066 3 17561076991265159772
13760787 5 16660932084692384328
13862211 1 18342736365077746967
14115302 16 18408042926870427509
14251764 30 17752783591189278163
14252887 29 15913332369095304732
14386348 63 17275105015901542196
15042514 8 18410579526661660883
15653759 3 17917988373777613816
17804303 29 18343581841388662561
17834072 33 18333736840555147628
1813 80 17531815632538650430
18186145 218 16588302825621638728
18915474 69 18260266390753989582
193927 3 18335990873045120107
19422 9 18261677059761453468
19862831 5 17749388191121713924
200 152 17385441011949210153
20279233 1 17060341829253962229
20281475 54 18334572472995881004
204376 136 14404890410892249772
20645477 70 14707197778548135296
20681677 155 18335421248965403929
21065201 7 18341324518362981984
221490 88 18340209716635866256
22646028 28 18408040732031096598
231179 274 12829211079304527012
23175994 123 16917351424140329120
23402539 116 18130780128093740773
23503958 8 18410853257010633178
23557571 272 17917157091453006996
23559900 14 18342734148125815272
23598291 2 17967820486836950869
26918003 58 17346596361466924784
312423 11 18263376943519509205
5104073 3 18272370905468559016
5281201 14 12252177425360524890
559249 180 18190454969964346675
573450 72 18410853231130020392
58051976 100 18408887338651634383
59755656 215 18341047420295744511
633830 44 16298110865149979724
67856867 119 18263362650375198684
77492 1 17967530185876649545
7970288 3 18050567645054451211
9709674 26 18265894842173829394
9981440 41 17322684431953748508

> <PUBCHEM_SHAPE_MULTIPOLES>
347.84
10.27
2.03
1.13
4.32
1.15
-0.05
4.34
0.58
-2.11
-0.16
1.15
-0.03
-0.44

> <PUBCHEM_SHAPE_SELFOVERLAP>
723

> <PUBCHEM_SHAPE_VOLUME>
197.4

> <PUBCHEM_COORDINATE_TYPE>
2
5
10

$$$$
