6143289
  -OEChem-09052013083D

 28 28  0     0  0  0  0  0  0999 V2000
    3.5837    0.4372   -0.3644 O   0  0  0  0  0  0  0  0  0  0  0  0
   -4.6775   -1.0916   -0.0304 O   0  0  0  0  0  0  0  0  0  0  0  0
   -0.4987   -0.2940   -0.1948 C   0  0  0  0  0  0  0  0  0  0  0  0
    2.2451    0.1971   -0.3098 C   0  0  0  0  0  0  0  0  0  0  0  0
   -0.0301    1.0063   -0.3821 C   0  0  0  0  0  0  0  0  0  0  0  0
    0.4047   -1.3488   -0.0648 C   0  0  0  0  0  0  0  0  0  0  0  0
    1.3418    1.2519   -0.4395 C   0  0  0  0  0  0  0  0  0  0  0  0
    1.7766   -1.1033   -0.1223 C   0  0  0  0  0  0  0  0  0  0  0  0
    4.4309   -0.4347    0.3825 C   0  0  0  0  0  0  0  0  0  0  0  0
   -1.9291   -0.5505   -0.1353 C   0  0  0  0  0  0  0  0  0  0  0  0
    5.6690    0.3255    0.8076 C   0  0  0  0  0  0  0  0  0  0  0  0
   -2.8210    0.3982    0.1346 C   0  0  0  0  0  0  0  0  0  0  0  0
   -4.2692    0.0455    0.1946 C   0  0  0  0  0  0  0  0  0  0  0  0
   -5.2262    1.1613    0.5243 C   0  0  0  0  0  0  0  0  0  0  0  0
   -0.6890    1.8590   -0.5152 H   0  0  0  0  0  0  0  0  0  0  0  0
    0.0576   -2.3696    0.0770 H   0  0  0  0  0  0  0  0  0  0  0  0
    1.7016    2.2660   -0.5909 H   0  0  0  0  0  0  0  0  0  0  0  0
    2.4449   -1.9557   -0.0440 H   0  0  0  0  0  0  0  0  0  0  0  0
    3.9402   -0.7991    1.2937 H   0  0  0  0  0  0  0  0  0  0  0  0
    4.7159   -1.2854   -0.2463 H   0  0  0  0  0  0  0  0  0  0  0  0
   -2.2386   -1.5772   -0.3118 H   0  0  0  0  0  0  0  0  0  0  0  0
    6.3478   -0.3173    1.3752 H   0  0  0  0  0  0  0  0  0  0  0  0
    6.2010    0.7155   -0.0665 H   0  0  0  0  0  0  0  0  0  0  0  0
    5.3990    1.1879    1.4262 H   0  0  0  0  0  0  0  0  0  0  0  0
   -2.5743    1.4305    0.3482 H   0  0  0  0  0  0  0  0  0  0  0  0
   -5.6652    1.5460   -0.3995 H   0  0  0  0  0  0  0  0  0  0  0  0
   -6.0139    0.7769    1.1786 H   0  0  0  0  0  0  0  0  0  0  0  0
   -4.7204    1.9737    1.0530 H   0  0  0  0  0  0  0  0  0  0  0  0
  1  4  1  0  0  0  0
  1  9  1  0  0  0  0
  2 13  2  0  0  0  0
  3  5  2  0  0  0  0
  3  6  1  0  0  0  0
  3 10  1  0  0  0  0
  4  7  2  0  0  0  0
  4  8  1  0  0  0  0
  5  7  1  0  0  0  0
  5 15  1  0  0  0  0
  6  8  2  0  0  0  0
  6 16  1  0  0  0  0
  7 17  1  0  0  0  0
  8 18  1  0  0  0  0
  9 11  1  0  0  0  0
  9 19  1  0  0  0  0
  9 20  1  0  0  0  0
 10 12  2  0  0  0  0
 10 21  1  0  0  0  0
 11 22  1  0  0  0  0
 11 23  1  0  0  0  0
 11 24  1  0  0  0  0
 12 13  1  0  0  0  0
 12 25  1  0  0  0  0
 13 14  1  0  0  0  0
 14 26  1  0  0  0  0
 14 27  1  0  0  0  0
 14 28  1  0  0  0  0
M  END
> <PUBCHEM_COMPOUND_CID>
6143289

> <PUBCHEM_CONFORMER_RMSD>
0.6

> <PUBCHEM_CONFORMER_DIVERSEORDER>
1
12
5
10
6
11
15
4
8
7
14
13
3
9
2

> <PUBCHEM_MMFF94_PARTIAL_CHARGES>
19
1 -0.36
10 -0.18
12 -0.14
13 0.49
14 0.06
15 0.15
16 0.15
17 0.15
18 0.15
2 -0.57
21 0.15
25 0.15
3 0.03
4 0.08
5 -0.15
6 -0.15
7 -0.15
8 -0.15
9 0.28

> <PUBCHEM_EFFECTIVE_ROTOR_COUNT>
4

> <PUBCHEM_PHARMACOPHORE_FEATURES>
3
1 1 acceptor
1 2 acceptor
6 3 4 5 6 7 8 rings

> <PUBCHEM_HEAVY_ATOM_COUNT>
14

> <PUBCHEM_ATOM_DEF_STEREO_COUNT>
0

> <PUBCHEM_ATOM_UDEF_STEREO_COUNT>
0

> <PUBCHEM_BOND_DEF_STEREO_COUNT>
1

> <PUBCHEM_BOND_UDEF_STEREO_COUNT>
0

> <PUBCHEM_ISOTOPIC_ATOM_COUNT>
0

> <PUBCHEM_COMPONENT_COUNT>
1

> <PUBCHEM_CACTVS_TAUTO_COUNT>
2

> <PUBCHEM_CONFORMER_ID>
005DBD3900000001

> <PUBCHEM_MMFF94_ENERGY>
39.8687

> <PUBCHEM_FEATURE_SELFOVERLAP>
15.223

> <PUBCHEM_SHAPE_FINGERPRINT>
11287383 113 15697995275368001870
11401426 45 18342737416431935869
117890 112 17489869328041914400
124424 183 17458064884698092729
12507557 5 18342460348572056905
12714333 28 15051731980067229953
13288520 33 11602540918643300553
13675066 3 18272371983505284550
13760787 5 17821727269069094438
13862211 1 18261106383336199706
13922767 16 18342739636761476232
14123238 8 18272651259516748902
14252887 29 18342465807169489334
15048467 5 17703787024860687128
15501527 24 10231751210736114810
17834076 25 13614522965370283276
18522853 276 18341614797901479289
187816 3 9871750208786305278
200 152 18343579651535382463
20645477 70 18268994194239822935
21637258 2 14851874881484824168
23402539 116 17918268757943277781
23402655 69 18341612582209869285
23559900 14 15482673498770482710
26918003 58 17676209073949026313
2916195 48 17703500077895155472
300161 21 18343299228820364901
33382 64 14707483651550355368
366044 4 18412825798140610894
4072396 5 18335130965137356554
42 15 18113337509272489428
42788 4 18272932726030086522
441001 317 17418098672448201201
4463277 17 18334577945412171612
5104073 3 18262244433784592793
53655031 270 18410012113361564624

> <PUBCHEM_SHAPE_MULTIPOLES>
276.37
11.34
1.26
0.73
0.91
0.05
0.04
-1.52
3.29
0.35
-0.05
-0.25
-0.07
-0.24

> <PUBCHEM_SHAPE_SELFOVERLAP>
563.259

> <PUBCHEM_SHAPE_VOLUME>
160.6

> <PUBCHEM_COORDINATE_TYPE>
2
5
10

$$$$
