536727
  -OEChem-09052013043D

 20 21  0     0  0  0  0  0  0999 V2000
   -3.4477   -1.1271    0.2739 O   0  0  0  0  0  0  0  0  0  0  0  0
    3.4477   -1.1271    0.2740 O   0  0  0  0  0  0  0  0  0  0  0  0
   -1.2086    1.6278   -0.1475 N   0  0  0  0  0  0  0  0  0  0  0  0
    1.2084    1.6277   -0.1480 N   0  0  0  0  0  0  0  0  0  0  0  0
   -1.2070   -1.1400   -0.2104 N   0  0  0  0  0  0  0  0  0  0  0  0
    1.2071   -1.1399   -0.2104 N   0  0  0  0  0  0  0  0  0  0  0  0
   -2.3565    0.8879    0.1466 N   0  0  0  0  0  0  0  0  0  0  0  0
    2.3565    0.8879    0.1467 N   0  0  0  0  0  0  0  0  0  0  0  0
    0.0000    0.9081    0.2450 C   0  0  0  0  0  0  0  0  0  0  0  0
    0.0000   -0.4053   -0.5178 C   0  0  0  0  0  0  0  0  0  0  0  0
   -2.4047   -0.5000    0.0739 C   0  0  0  0  0  0  0  0  0  0  0  0
    2.4047   -0.5000    0.0740 C   0  0  0  0  0  0  0  0  0  0  0  0
    0.0001    0.7470    1.3332 H   0  0  0  0  0  0  0  0  0  0  0  0
    0.0000   -0.2467   -1.6049 H   0  0  0  0  0  0  0  0  0  0  0  0
   -1.2692    2.4959    0.3831 H   0  0  0  0  0  0  0  0  0  0  0  0
    1.2691    2.4961    0.3823 H   0  0  0  0  0  0  0  0  0  0  0  0
   -1.2004   -2.1514   -0.2957 H   0  0  0  0  0  0  0  0  0  0  0  0
    1.2005   -2.1513   -0.2958 H   0  0  0  0  0  0  0  0  0  0  0  0
   -3.1970    1.4128    0.3674 H   0  0  0  0  0  0  0  0  0  0  0  0
    3.1969    1.4129    0.3677 H   0  0  0  0  0  0  0  0  0  0  0  0
  1 11  2  0  0  0  0
  2 12  2  0  0  0  0
  3  7  1  0  0  0  0
  3  9  1  0  0  0  0
  3 15  1  0  0  0  0
  4  8  1  0  0  0  0
  4  9  1  0  0  0  0
  4 16  1  0  0  0  0
  5 10  1  0  0  0  0
  5 11  1  0  0  0  0
  5 17  1  0  0  0  0
  6 10  1  0  0  0  0
  6 12  1  0  0  0  0
  6 18  1  0  0  0  0
  7 11  1  0  0  0  0
  7 19  1  0  0  0  0
  8 12  1  0  0  0  0
  8 20  1  0  0  0  0
  9 10  1  0  0  0  0
  9 13  1  0  0  0  0
 10 14  1  0  0  0  0
M  END
> <PUBCHEM_COMPOUND_CID>
536727

> <PUBCHEM_CONFORMER_RMSD>
0.4

> <PUBCHEM_CONFORMER_DIVERSEORDER>
1

> <PUBCHEM_MMFF94_PARTIAL_CHARGES>
18
1 -0.57
10 0.6
11 0.69
12 0.69
15 0.36
16 0.36
17 0.37
18 0.37
19 0.37
2 -0.57
20 0.37
3 -0.64
4 -0.64
5 -0.73
6 -0.73
7 -0.42
8 -0.42
9 0.54

> <PUBCHEM_EFFECTIVE_ROTOR_COUNT>
1.2

> <PUBCHEM_PHARMACOPHORE_FEATURES>
10
1 1 acceptor
1 2 acceptor
1 3 donor
1 4 donor
1 5 donor
1 6 donor
1 7 donor
1 8 donor
6 3 5 7 9 10 11 rings
6 4 6 8 9 10 12 rings

> <PUBCHEM_HEAVY_ATOM_COUNT>
12

> <PUBCHEM_ATOM_DEF_STEREO_COUNT>
0

> <PUBCHEM_ATOM_UDEF_STEREO_COUNT>
0

> <PUBCHEM_BOND_DEF_STEREO_COUNT>
0

> <PUBCHEM_BOND_UDEF_STEREO_COUNT>
0

> <PUBCHEM_ISOTOPIC_ATOM_COUNT>
0

> <PUBCHEM_COMPONENT_COUNT>
1

> <PUBCHEM_CACTVS_TAUTO_COUNT>
6

> <PUBCHEM_CONFORMER_ID>
0008309700000001

> <PUBCHEM_MMFF94_ENERGY>
21.4511

> <PUBCHEM_FEATURE_SELFOVERLAP>
53.808

> <PUBCHEM_SHAPE_FINGERPRINT>
10857977 72 18340759382002077562
11769659 78 18335415772618370122
12032990 46 18341336595911452766
12932764 1 17632009853115783036
14325111 11 18411419518204497840
16945 1 18413389834430198606
19973954 147 18411420596251851653
20201158 50 18411979122510283911
20871998 184 18201716210952980167
20871998 22 18271253711777234678
21501502 16 18410300211183341293
21501925 9 18410845590446426490
23463225 33 18410294726393741516
23552423 10 18260831526676985548
2748010 2 18412538786813723964
369184 2 18409445877779117939
5084963 1 18343865519477633978
7364860 26 18270965777422983116

> <PUBCHEM_SHAPE_MULTIPOLES>
205.33
4.7
1.6
0.61
0
0.38
-0.01
-1.63
0.64
0
-0.02
0
-0.02
0

> <PUBCHEM_SHAPE_SELFOVERLAP>
429.886

> <PUBCHEM_SHAPE_VOLUME>
111.7

> <PUBCHEM_COORDINATE_TYPE>
2
5
10

$$$$
