191964
  -OEChem-09052013392D

 66 66  0     0  0  0  0  0  0999 V2000
    9.7942    0.2500    0.0000 O   0  0  0  0  0  0  0  0  0  0  0  0
    6.3301   -1.7500    0.0000 O   0  0  0  0  0  0  0  0  0  0  0  0
    8.0622    0.2500    0.0000 O   0  0  0  0  0  0  0  0  0  0  0  0
    7.1962   -0.2500    0.0000 O   0  0  0  0  0  0  0  0  0  0  0  0
   10.6603    1.7500    0.0000 C   0  0  0  0  0  0  0  0  0  0  0  0
    4.5981   -1.7500    0.0000 C   0  0  0  0  0  0  0  0  0  0  0  0
   10.6603    2.7500    0.0000 C   0  0  0  0  0  0  0  0  0  0  0  0
   11.5263    1.2500    0.0000 C   0  0  0  0  0  0  0  0  0  0  0  0
    3.7320   -1.2500    0.0000 C   0  0  0  0  0  0  0  0  0  0  0  0
    4.5981   -2.7500    0.0000 C   0  0  0  0  0  0  0  0  0  0  0  0
    9.7942    1.2500    0.0000 C   0  0  0  0  0  0  0  0  0  0  0  0
    5.4641   -1.2500    0.0000 C   0  0  0  0  0  0  0  0  0  0  0  0
   11.5263    3.2500    0.0000 C   0  0  0  0  0  0  0  0  0  0  0  0
   12.3923    1.7500    0.0000 C   0  0  0  0  0  0  0  0  0  0  0  0
    2.8660   -1.7500    0.0000 C   0  0  0  0  0  0  0  0  0  0  0  0
    3.7320   -3.2500    0.0000 C   0  0  0  0  0  0  0  0  0  0  0  0
   11.5263    4.2500    0.0000 C   0  0  0  0  0  0  0  0  0  0  0  0
   13.2583    1.2500    0.0000 C   0  0  0  0  0  0  0  0  0  0  0  0
    2.0000   -1.2500    0.0000 C   0  0  0  0  0  0  0  0  0  0  0  0
    3.7320   -4.2500    0.0000 C   0  0  0  0  0  0  0  0  0  0  0  0
    8.9282   -0.2500    0.0000 C   0  0  0  0  0  0  0  0  0  0  0  0
    7.1962   -1.2500    0.0000 C   0  0  0  0  0  0  0  0  0  0  0  0
    8.9282   -1.2500    0.0000 C   0  0  0  0  0  0  0  0  0  0  0  0
    8.0622   -1.7500    0.0000 C   0  0  0  0  0  0  0  0  0  0  0  0
    9.7942   -1.7500    0.0000 C   0  0  0  0  0  0  0  0  0  0  0  0
    8.0622   -2.7500    0.0000 C   0  0  0  0  0  0  0  0  0  0  0  0
    9.7942   -2.7500    0.0000 C   0  0  0  0  0  0  0  0  0  0  0  0
    8.9282   -3.2500    0.0000 C   0  0  0  0  0  0  0  0  0  0  0  0
   11.1972    2.0600    0.0000 H   0  0  0  0  0  0  0  0  0  0  0  0
    4.5981   -1.1300    0.0000 H   0  0  0  0  0  0  0  0  0  0  0  0
   10.4482    3.3326    0.0000 H   0  0  0  0  0  0  0  0  0  0  0  0
   10.0497    2.6423    0.0000 H   0  0  0  0  0  0  0  0  0  0  0  0
   11.1278    0.7751    0.0000 H   0  0  0  0  0  0  0  0  0  0  0  0
   11.9248    0.7751    0.0000 H   0  0  0  0  0  0  0  0  0  0  0  0
    4.1306   -0.7751    0.0000 H   0  0  0  0  0  0  0  0  0  0  0  0
    3.3335   -0.7751    0.0000 H   0  0  0  0  0  0  0  0  0  0  0  0
    4.8101   -3.3326    0.0000 H   0  0  0  0  0  0  0  0  0  0  0  0
    5.2087   -2.6423    0.0000 H   0  0  0  0  0  0  0  0  0  0  0  0
    9.5822    1.8326    0.0000 H   0  0  0  0  0  0  0  0  0  0  0  0
    9.1836    1.1423    0.0000 H   0  0  0  0  0  0  0  0  0  0  0  0
    5.8626   -0.7751    0.0000 H   0  0  0  0  0  0  0  0  0  0  0  0
    5.0656   -0.7751    0.0000 H   0  0  0  0  0  0  0  0  0  0  0  0
   11.7383    2.6674    0.0000 H   0  0  0  0  0  0  0  0  0  0  0  0
   12.1369    3.3577    0.0000 H   0  0  0  0  0  0  0  0  0  0  0  0
   12.7908    2.2250    0.0000 H   0  0  0  0  0  0  0  0  0  0  0  0
   11.9938    2.2250    0.0000 H   0  0  0  0  0  0  0  0  0  0  0  0
    2.4675   -2.2250    0.0000 H   0  0  0  0  0  0  0  0  0  0  0  0
    3.2646   -2.2250    0.0000 H   0  0  0  0  0  0  0  0  0  0  0  0
    3.5200   -2.6674    0.0000 H   0  0  0  0  0  0  0  0  0  0  0  0
    3.1215   -3.3577    0.0000 H   0  0  0  0  0  0  0  0  0  0  0  0
   12.1463    4.2500    0.0000 H   0  0  0  0  0  0  0  0  0  0  0  0
   11.5263    4.8700    0.0000 H   0  0  0  0  0  0  0  0  0  0  0  0
   10.9063    4.2500    0.0000 H   0  0  0  0  0  0  0  0  0  0  0  0
   12.9483    0.7131    0.0000 H   0  0  0  0  0  0  0  0  0  0  0  0
   13.7953    0.9400    0.0000 H   0  0  0  0  0  0  0  0  0  0  0  0
   13.5683    1.7869    0.0000 H   0  0  0  0  0  0  0  0  0  0  0  0
    2.3100   -0.7131    0.0000 H   0  0  0  0  0  0  0  0  0  0  0  0
    1.4631   -0.9400    0.0000 H   0  0  0  0  0  0  0  0  0  0  0  0
    1.6900   -1.7869    0.0000 H   0  0  0  0  0  0  0  0  0  0  0  0
    3.1120   -4.2500    0.0000 H   0  0  0  0  0  0  0  0  0  0  0  0
    3.7320   -4.8700    0.0000 H   0  0  0  0  0  0  0  0  0  0  0  0
    4.3520   -4.2500    0.0000 H   0  0  0  0  0  0  0  0  0  0  0  0
   10.3312   -1.4400    0.0000 H   0  0  0  0  0  0  0  0  0  0  0  0
    7.5252   -3.0600    0.0000 H   0  0  0  0  0  0  0  0  0  0  0  0
   10.3312   -3.0600    0.0000 H   0  0  0  0  0  0  0  0  0  0  0  0
    8.9282   -3.8700    0.0000 H   0  0  0  0  0  0  0  0  0  0  0  0
  1 11  1  0  0  0  0
  1 21  1  0  0  0  0
  2 12  1  0  0  0  0
  2 22  1  0  0  0  0
  3 21  2  0  0  0  0
  4 22  2  0  0  0  0
  5  7  1  0  0  0  0
  5  8  1  0  0  0  0
  5 11  1  0  0  0  0
  5 29  1  0  0  0  0
  6  9  1  0  0  0  0
  6 10  1  0  0  0  0
  6 12  1  0  0  0  0
  6 30  1  0  0  0  0
  7 13  1  0  0  0  0
  7 31  1  0  0  0  0
  7 32  1  0  0  0  0
  8 14  1  0  0  0  0
  8 33  1  0  0  0  0
  8 34  1  0  0  0  0
  9 15  1  0  0  0  0
  9 35  1  0  0  0  0
  9 36  1  0  0  0  0
 10 16  1  0  0  0  0
 10 37  1  0  0  0  0
 10 38  1  0  0  0  0
 11 39  1  0  0  0  0
 11 40  1  0  0  0  0
 12 41  1  0  0  0  0
 12 42  1  0  0  0  0
 13 17  1  0  0  0  0
 13 43  1  0  0  0  0
 13 44  1  0  0  0  0
 14 18  1  0  0  0  0
 14 45  1  0  0  0  0
 14 46  1  0  0  0  0
 15 19  1  0  0  0  0
 15 47  1  0  0  0  0
 15 48  1  0  0  0  0
 16 20  1  0  0  0  0
 16 49  1  0  0  0  0
 16 50  1  0  0  0  0
 17 51  1  0  0  0  0
 17 52  1  0  0  0  0
 17 53  1  0  0  0  0
 18 54  1  0  0  0  0
 18 55  1  0  0  0  0
 18 56  1  0  0  0  0
 19 57  1  0  0  0  0
 19 58  1  0  0  0  0
 19 59  1  0  0  0  0
 20 60  1  0  0  0  0
 20 61  1  0  0  0  0
 20 62  1  0  0  0  0
 21 23  1  0  0  0  0
 22 24  1  0  0  0  0
 23 24  1  0  0  0  0
 23 25  2  0  0  0  0
 24 26  2  0  0  0  0
 25 27  1  0  0  0  0
 25 63  1  0  0  0  0
 26 28  1  0  0  0  0
 26 64  1  0  0  0  0
 27 28  2  0  0  0  0
 27 65  1  0  0  0  0
 28 66  1  0  0  0  0
M  END
> <PUBCHEM_COMPOUND_CID>
191964

> <PUBCHEM_COMPOUND_CANONICALIZED>
1

> <PUBCHEM_CACTVS_COMPLEXITY>
382

> <PUBCHEM_CACTVS_HBOND_ACCEPTOR>
4

> <PUBCHEM_CACTVS_HBOND_DONOR>
0

> <PUBCHEM_CACTVS_ROTATABLE_BOND>
16

> <PUBCHEM_CACTVS_SUBSKEYS>
AAADcfB4OAAAAAAAAAAAAAAAAAAAAAAAAAAwAAAAAAAAAAABAAAAGgAAAAAADQCgmAIyCIAABACIAiDSCAACAAAkAAAIiAEACMgIJjKANRiCMQAkwAEIqYfLyKCOgAAAAAAQAAAAAAAAACAAAAAAAAAAAA==

> <PUBCHEM_IUPAC_OPENEYE_NAME>
bis(2-propylpentyl) benzene-1,2-dicarboxylate

> <PUBCHEM_IUPAC_CAS_NAME>
benzene-1,2-dicarboxylic acid bis(2-propylpentyl) ester

> <PUBCHEM_IUPAC_NAME_MARKUP>
bis(2-propylpentyl) benzene-1,2-dicarboxylate

> <PUBCHEM_IUPAC_NAME>
bis(2-propylpentyl) benzene-1,2-dicarboxylate

> <PUBCHEM_IUPAC_SYSTEMATIC_NAME>
bis(2-propylpentyl) benzene-1,2-dicarboxylate

> <PUBCHEM_IUPAC_TRADITIONAL_NAME>
benzene-1,2-dicarboxylic acid bis(2-propylpentyl) ester

> <PUBCHEM_IUPAC_INCHI>
InChI=1S/C24H38O4/c1-5-11-19(12-6-2)17-27-23(25)21-15-9-10-16-22(21)24(26)28-18-20(13-7-3)14-8-4/h9-10,15-16,19-20H,5-8,11-14,17-18H2,1-4H3

> <PUBCHEM_IUPAC_INCHIKEY>
KIYUVQCUDDMZRE-UHFFFAOYSA-N

> <PUBCHEM_XLOGP3>
7.4

> <PUBCHEM_EXACT_MASS>
390.27701

> <PUBCHEM_MOLECULAR_FORMULA>
C24H38O4

> <PUBCHEM_MOLECULAR_WEIGHT>
390.6

> <PUBCHEM_OPENEYE_CAN_SMILES>
CCCC(CCC)COC(=O)C1=CC=CC=C1C(=O)OCC(CCC)CCC

> <PUBCHEM_OPENEYE_ISO_SMILES>
CCCC(CCC)COC(=O)C1=CC=CC=C1C(=O)OCC(CCC)CCC

> <PUBCHEM_CACTVS_TPSA>
52.6

> <PUBCHEM_MONOISOTOPIC_WEIGHT>
390.27701

> <PUBCHEM_TOTAL_CHARGE>
0

> <PUBCHEM_HEAVY_ATOM_COUNT>
28

> <PUBCHEM_ATOM_DEF_STEREO_COUNT>
0

> <PUBCHEM_ATOM_UDEF_STEREO_COUNT>
0

> <PUBCHEM_BOND_DEF_STEREO_COUNT>
0

> <PUBCHEM_BOND_UDEF_STEREO_COUNT>
0

> <PUBCHEM_ISOTOPIC_ATOM_COUNT>
0

> <PUBCHEM_COMPONENT_COUNT>
1

> <PUBCHEM_CACTVS_TAUTO_COUNT>
-1

> <PUBCHEM_COORDINATE_TYPE>
1
5
255

> <PUBCHEM_BONDANNOTATIONS>
23  24  8
23  25  8
24  26  8
25  27  8
26  28  8
27  28  8

$$$$
