11434888
  -OEChem-09132005092D

259272  0     1  0  0  0  0  0999 V2000
   21.8779    8.5255    0.0000 O   0  0  0  0  0  0  0  0  0  0  0  0
   12.9292    5.5079    0.0000 O   0  0  0  0  0  0  0  0  0  0  0  0
   13.7953    7.0079    0.0000 O   0  0  0  0  0  0  0  0  0  0  0  0
   23.6098    8.5055    0.0000 O   0  0  0  0  0  0  0  0  0  0  0  0
   21.8547    6.5257    0.0000 O   0  0  0  0  0  0  0  0  0  0  0  0
   11.1972    5.5079    0.0000 O   0  0  0  0  0  0  0  0  0  0  0  0
   23.5751    5.5057    0.0000 O   0  0  0  0  0  0  0  0  0  0  0  0
   25.3186    6.4856    0.0000 O   0  0  0  0  0  0  0  0  0  0  0  0
   12.9292    7.5079    0.0000 O   0  0  0  0  0  0  0  0  0  0  0  0
   11.1972    8.5079    0.0000 O   0  0  0  0  0  0  0  0  0  0  0  0
   22.7034    5.0157    0.0000 O   0  0  0  0  0  0  0  0  0  0  0  0
    9.4651    7.5079    0.0000 O   0  0  0  0  0  0  0  0  0  0  0  0
    9.4651    4.5079    0.0000 O   0  0  0  0  0  0  0  0  0  0  0  0
   20.1112    5.5458    0.0000 O   0  0  0  0  0  0  0  0  0  0  0  0
   20.0881    3.5459    0.0000 O   0  0  0  0  0  0  0  0  0  0  0  0
   21.8085    2.5259    0.0000 O   0  0  0  0  0  0  0  0  0  0  0  0
    7.7331    4.5079    0.0000 O   0  0  0  0  0  0  0  0  0  0  0  0
   20.9367    2.0360    0.0000 O   0  0  0  0  0  0  0  0  0  0  0  0
    9.4651    2.5079    0.0000 O   0  0  0  0  0  0  0  0  0  0  0  0
   18.3446    2.5660    0.0000 O   0  0  0  0  0  0  0  0  0  0  0  0
    7.7331    1.5079    0.0000 O   0  0  0  0  0  0  0  0  0  0  0  0
    6.0010    2.5079    0.0000 O   0  0  0  0  0  0  0  0  0  0  0  0
   18.3215    0.5661    0.0000 O   0  0  0  0  0  0  0  0  0  0  0  0
   20.0419   -0.4538    0.0000 O   0  0  0  0  0  0  0  0  0  0  0  0
    6.0010    5.5079    0.0000 O   0  0  0  0  0  0  0  0  0  0  0  0
    4.2690    2.5079    0.0000 O   0  0  0  0  0  0  0  0  0  0  0  0
   20.8905   -1.9638    0.0000 O   0  0  0  0  0  0  0  0  0  0  0  0
    6.0010    4.5079    0.0000 O   0  0  0  0  0  0  0  0  0  0  0  0
    4.2690    5.5079    0.0000 O   0  0  0  0  0  0  0  0  0  0  0  0
   21.7854    0.5261    0.0000 O   0  0  0  0  0  0  0  0  0  0  0  0
    2.5369    4.5079    0.0000 O   0  0  0  0  0  0  0  0  0  0  0  0
   23.5057   -0.4939    0.0000 O   0  0  0  0  0  0  0  0  0  0  0  0
   23.4826   -2.4938    0.0000 O   0  0  0  0  0  0  0  0  0  0  0  0
   20.8674   -3.9636    0.0000 O   0  0  0  0  0  0  0  0  0  0  0  0
   22.5993   -3.9836    0.0000 O   0  0  0  0  0  0  0  0  0  0  0  0
   25.2030   -3.5137    0.0000 O   0  0  0  0  0  0  0  0  0  0  0  0
   25.1798   -5.5136    0.0000 O   0  0  0  0  0  0  0  0  0  0  0  0
   23.4363   -6.4935    0.0000 O   0  0  0  0  0  0  0  0  0  0  0  0
   21.7044   -6.4735    0.0000 O   0  0  0  0  0  0  0  0  0  0  0  0
   20.8211   -7.9634    0.0000 O   0  0  0  0  0  0  0  0  0  0  0  0
   19.9840   -5.4535    0.0000 O   0  0  0  0  0  0  0  0  0  0  0  0
   18.2405   -6.4334    0.0000 O   0  0  0  0  0  0  0  0  0  0  0  0
   18.2174   -8.4333    0.0000 O   0  0  0  0  0  0  0  0  0  0  0  0
   17.3390    7.0081    0.0000 C   0  0  2  0  0  0  0  0  0  0  0  0
   18.2011    6.5015    0.0000 C   0  0  1  0  0  0  0  0  0  0  0  0
   19.1150    7.0013    0.0000 C   0  0  2  0  0  0  0  0  0  0  0  0
   16.4691    6.5148    0.0000 C   0  0  1  0  0  0  0  0  0  0  0  0
   19.1311    8.0428    0.0000 C   0  0  2  0  0  0  0  0  0  0  0  0
   17.3309    8.0497    0.0000 C   0  0  0  0  0  0  0  0  0  0  0  0
   20.0707    8.5853    0.0000 C   0  0  0  0  0  0  0  0  0  0  0  0
   18.2330    8.5706    0.0000 C   0  0  0  0  0  0  0  0  0  0  0  0
   16.4614    5.5149    0.0000 C   0  0  0  0  0  0  0  0  0  0  0  0
   15.5634    4.9871    0.0000 C   0  0  1  0  0  0  0  0  0  0  0  0
   18.1934    5.5015    0.0000 C   0  0  0  0  0  0  0  0  0  0  0  0
   20.0375    6.4301    0.0000 C   0  0  0  0  0  0  0  0  0  0  0  0
   15.5793    7.0564    0.0000 C   0  0  0  0  0  0  0  0  0  0  0  0
   14.6613    5.5079    0.0000 C   0  0  1  0  0  0  0  0  0  0  0  0
   16.7021    7.7791    0.0000 C   0  0  0  0  0  0  0  0  0  0  0  0
   21.0061    8.0356    0.0000 C   0  0  2  0  0  0  0  0  0  0  0  0
   14.6693    6.5495    0.0000 C   0  0  0  0  0  0  0  0  0  0  0  0
   19.0996    6.0014    0.0000 C   0  0  0  0  0  0  0  0  0  0  0  0
   17.3236    5.0082    0.0000 C   0  0  0  0  0  0  0  0  0  0  0  0
   20.9894    6.9507    0.0000 C   0  0  0  0  0  0  0  0  0  0  0  0
   16.1343    7.4571    0.0000 C   0  0  0  0  0  0  0  0  0  0  0  0
   15.5801    3.9022    0.0000 C   0  0  0  0  0  0  0  0  0  0  0  0
   13.7134    4.9800    0.0000 C   0  0  0  0  0  0  0  0  0  0  0  0
   14.6447    3.3525    0.0000 C   0  0  0  0  0  0  0  0  0  0  0  0
   20.5740    9.4494    0.0000 C   0  0  0  0  0  0  0  0  0  0  0  0
   19.5740    9.4532    0.0000 C   0  0  0  0  0  0  0  0  0  0  0  0
   13.7050    3.8950    0.0000 C   0  0  0  0  0  0  0  0  0  0  0  0
   13.7953    6.0079    0.0000 C   0  0  0  0  0  0  0  0  0  0  0  0
   15.1480    2.4884    0.0000 C   0  0  0  0  0  0  0  0  0  0  0  0
   14.1480    2.4846    0.0000 C   0  0  0  0  0  0  0  0  0  0  0  0
   22.7380    8.0155    0.0000 C   0  0  2  0  0  0  0  0  0  0  0  0
   22.7265    7.0156    0.0000 C   0  0  1  0  0  0  0  0  0  0  0  0
   12.0632    6.0079    0.0000 C   0  0  2  0  0  0  0  0  0  0  0  0
   23.5867    6.5056    0.0000 C   0  0  2  0  0  0  0  0  0  0  0  0
   24.4700    7.9955    0.0000 C   0  0  0  0  0  0  0  0  0  0  0  0
   24.4584    6.9956    0.0000 C   0  0  2  0  0  0  0  0  0  0  0  0
   12.0632    7.0079    0.0000 C   0  0  1  0  0  0  0  0  0  0  0  0
   11.1972    7.5079    0.0000 C   0  0  2  0  0  0  0  0  0  0  0  0
   10.3312    6.0079    0.0000 C   0  0  1  0  0  0  0  0  0  0  0  0
   10.3312    7.0079    0.0000 C   0  0  1  0  0  0  0  0  0  0  0  0
   21.8432    5.5257    0.0000 C   0  0  2  0  0  0  0  0  0  0  0  0
   20.9714    5.0358    0.0000 C   0  0  1  0  0  0  0  0  0  0  0  0
    9.4651    5.5079    0.0000 C   0  0  0  0  0  0  0  0  0  0  0  0
   20.9599    4.0358    0.0000 C   0  0  1  0  0  0  0  0  0  0  0  0
   22.6918    4.0158    0.0000 C   0  0  2  0  0  0  0  0  0  0  0  0
   21.8200    3.5259    0.0000 C   0  0  2  0  0  0  0  0  0  0  0  0
   23.5520    3.5058    0.0000 C   0  0  0  0  0  0  0  0  0  0  0  0
    8.5991    4.0079    0.0000 C   0  0  2  0  0  0  0  0  0  0  0  0
   20.0765    2.5460    0.0000 C   0  0  2  0  0  0  0  0  0  0  0  0
    8.5991    3.0079    0.0000 C   0  0  1  0  0  0  0  0  0  0  0  0
   19.2048    2.0560    0.0000 C   0  0  1  0  0  0  0  0  0  0  0  0
    7.7331    2.5079    0.0000 C   0  0  2  0  0  0  0  0  0  0  0  0
    6.8671    4.0079    0.0000 C   0  0  1  0  0  0  0  0  0  0  0  0
    6.8671    3.0079    0.0000 C   0  0  1  0  0  0  0  0  0  0  0  0
   19.1932    1.0561    0.0000 C   0  0  1  0  0  0  0  0  0  0  0  0
   20.9252    1.0360    0.0000 C   0  0  0  0  0  0  0  0  0  0  0  0
   20.0534    0.5461    0.0000 C   0  0  1  0  0  0  0  0  0  0  0  0
    6.0010    4.5079    0.0000 C   0  0  0  0  0  0  0  0  0  0  0  0
    5.1350    3.0079    0.0000 C   0  0  2  0  0  0  0  0  0  0  0  0
   20.9020   -0.9638    0.0000 C   0  0  2  0  0  0  0  0  0  0  0  0
    5.1350    4.0079    0.0000 C   0  0  1  0  0  0  0  0  0  0  0  0
    4.2690    4.5079    0.0000 C   0  0  1  0  0  0  0  0  0  0  0  0
   21.7738   -0.4739    0.0000 C   0  0  1  0  0  0  0  0  0  0  0  0
    3.4030    3.0079    0.0000 C   0  0  2  0  0  0  0  0  0  0  0  0
    3.4030    4.0079    0.0000 C   0  0  2  0  0  0  0  0  0  0  0  0
   22.6340   -0.9839    0.0000 C   0  0  2  0  0  0  0  0  0  0  0  0
   21.7507   -2.4737    0.0000 C   0  0  1  0  0  0  0  0  0  0  0  0
   22.6224   -1.9838    0.0000 C   0  0  1  0  0  0  0  0  0  0  0  0
    2.5369    2.5079    0.0000 C   0  0  0  0  0  0  0  0  0  0  0  0
   21.7391   -3.4737    0.0000 C   0  0  0  0  0  0  0  0  0  0  0  0
   23.4710   -3.4937    0.0000 C   0  0  2  0  0  0  0  0  0  0  0  0
   24.3312   -4.0037    0.0000 C   0  0  1  0  0  0  0  0  0  0  0  0
   24.3197   -5.0036    0.0000 C   0  0  2  0  0  0  0  0  0  0  0  0
   22.5877   -4.9836    0.0000 C   0  0  1  0  0  0  0  0  0  0  0  0
   23.4479   -5.4936    0.0000 C   0  0  1  0  0  0  0  0  0  0  0  0
   21.7160   -5.4735    0.0000 C   0  0  0  0  0  0  0  0  0  0  0  0
   20.8327   -6.9634    0.0000 C   0  0  2  0  0  0  0  0  0  0  0  0
   19.9725   -6.4534    0.0000 C   0  0  1  0  0  0  0  0  0  0  0  0
   19.1007   -6.9434    0.0000 C   0  0  1  0  0  0  0  0  0  0  0  0
   19.9494   -8.4533    0.0000 C   0  0  2  0  0  0  0  0  0  0  0  0
   19.0892   -7.9433    0.0000 C   0  0  2  0  0  0  0  0  0  0  0  0
   19.9378   -9.4532    0.0000 C   0  0  0  0  0  0  0  0  0  0  0  0
   18.9306    6.0652    0.0000 H   0  0  0  0  0  0  0  0  0  0  0  0
   19.1343    8.8928    0.0000 H   0  0  0  0  0  0  0  0  0  0  0  0
   17.1174    8.6318    0.0000 H   0  0  0  0  0  0  0  0  0  0  0  0
   16.7209    7.9389    0.0000 H   0  0  0  0  0  0  0  0  0  0  0  0
   18.6340    9.0434    0.0000 H   0  0  0  0  0  0  0  0  0  0  0  0
   17.8357    9.0465    0.0000 H   0  0  0  0  0  0  0  0  0  0  0  0
   16.3044    4.5706    0.0000 H   0  0  0  0  0  0  0  0  0  0  0  0
   18.4010    4.9173    0.0000 H   0  0  0  0  0  0  0  0  0  0  0  0
   18.8048    5.6045    0.0000 H   0  0  0  0  0  0  0  0  0  0  0  0
   19.6257    5.9666    0.0000 H   0  0  0  0  0  0  0  0  0  0  0  0
   20.4237    5.9450    0.0000 H   0  0  0  0  0  0  0  0  0  0  0  0
   15.9875    7.5230    0.0000 H   0  0  0  0  0  0  0  0  0  0  0  0
   15.1894    7.5384    0.0000 H   0  0  0  0  0  0  0  0  0  0  0  0
   17.1801    8.1740    0.0000 H   0  0  0  0  0  0  0  0  0  0  0  0
   16.3073    8.2571    0.0000 H   0  0  0  0  0  0  0  0  0  0  0  0
   16.2241    7.3843    0.0000 H   0  0  0  0  0  0  0  0  0  0  0  0
   21.5388    7.7184    0.0000 H   0  0  0  0  0  0  0  0  0  0  0  0
   14.4648    7.1348    0.0000 H   0  0  0  0  0  0  0  0  0  0  0  0
   14.0577    6.4481    0.0000 H   0  0  0  0  0  0  0  0  0  0  0  0
   18.4797    6.0110    0.0000 H   0  0  0  0  0  0  0  0  0  0  0  0
   19.0900    5.3815    0.0000 H   0  0  0  0  0  0  0  0  0  0  0  0
   19.7195    5.9918    0.0000 H   0  0  0  0  0  0  0  0  0  0  0  0
   17.3188    4.3882    0.0000 H   0  0  0  0  0  0  0  0  0  0  0  0
   21.1894    6.3639    0.0000 H   0  0  0  0  0  0  0  0  0  0  0  0
   21.6018    7.0474    0.0000 H   0  0  0  0  0  0  0  0  0  0  0  0
   16.7186    7.6647    0.0000 H   0  0  0  0  0  0  0  0  0  0  0  0
   15.9268    8.0414    0.0000 H   0  0  0  0  0  0  0  0  0  0  0  0
   15.5501    7.2496    0.0000 H   0  0  0  0  0  0  0  0  0  0  0  0
   15.7981    3.3218    0.0000 H   0  0  0  0  0  0  0  0  0  0  0  0
   16.1892    4.0177    0.0000 H   0  0  0  0  0  0  0  0  0  0  0  0
   13.5089    5.5653    0.0000 H   0  0  0  0  0  0  0  0  0  0  0  0
   13.1018    4.8786    0.0000 H   0  0  0  0  0  0  0  0  0  0  0  0
   21.1098    9.1373    0.0000 H   0  0  0  0  0  0  0  0  0  0  0  0
   20.8861    9.9851    0.0000 H   0  0  0  0  0  0  0  0  0  0  0  0
   20.0383    9.7615    0.0000 H   0  0  0  0  0  0  0  0  0  0  0  0
   20.1122    9.7612    0.0000 H   0  0  0  0  0  0  0  0  0  0  0  0
   19.2661    9.9914    0.0000 H   0  0  0  0  0  0  0  0  0  0  0  0
   19.0359    9.1453    0.0000 H   0  0  0  0  0  0  0  0  0  0  0  0
   13.0950    4.0058    0.0000 H   0  0  0  0  0  0  0  0  0  0  0  0
   13.4915    3.3130    0.0000 H   0  0  0  0  0  0  0  0  0  0  0  0
   14.6123    2.1764    0.0000 H   0  0  0  0  0  0  0  0  0  0  0  0
   15.4601    1.9527    0.0000 H   0  0  0  0  0  0  0  0  0  0  0  0
   15.6837    2.8005    0.0000 H   0  0  0  0  0  0  0  0  0  0  0  0
   13.6099    2.7925    0.0000 H   0  0  0  0  0  0  0  0  0  0  0  0
   13.8401    1.9464    0.0000 H   0  0  0  0  0  0  0  0  0  0  0  0
   14.6861    2.1766    0.0000 H   0  0  0  0  0  0  0  0  0  0  0  0
   22.1976    7.7118    0.0000 H   0  0  0  0  0  0  0  0  0  0  0  0
   22.7193    6.3956    0.0000 H   0  0  0  0  0  0  0  0  0  0  0  0
   12.6002    6.3179    0.0000 H   0  0  0  0  0  0  0  0  0  0  0  0
   24.1200    6.1894    0.0000 H   0  0  0  0  0  0  0  0  0  0  0  0
   25.0793    7.8808    0.0000 H   0  0  0  0  0  0  0  0  0  0  0  0
   24.6888    8.5756    0.0000 H   0  0  0  0  0  0  0  0  0  0  0  0
   24.9989    7.2994    0.0000 H   0  0  0  0  0  0  0  0  0  0  0  0
   12.0632    7.6279    0.0000 H   0  0  0  0  0  0  0  0  0  0  0  0
   10.6603    7.8179    0.0000 H   0  0  0  0  0  0  0  0  0  0  0  0
   10.3312    5.3879    0.0000 H   0  0  0  0  0  0  0  0  0  0  0  0
    9.7942    6.6979    0.0000 H   0  0  0  0  0  0  0  0  0  0  0  0
   21.3099    5.8419    0.0000 H   0  0  0  0  0  0  0  0  0  0  0  0
   24.1084    5.1895    0.0000 H   0  0  0  0  0  0  0  0  0  0  0  0
   25.8591    6.7894    0.0000 H   0  0  0  0  0  0  0  0  0  0  0  0
   12.9292    8.1279    0.0000 H   0  0  0  0  0  0  0  0  0  0  0  0
   20.4309    4.7320    0.0000 H   0  0  0  0  0  0  0  0  0  0  0  0
    9.2531    6.0905    0.0000 H   0  0  0  0  0  0  0  0  0  0  0  0
    8.8546    5.4003    0.0000 H   0  0  0  0  0  0  0  0  0  0  0  0
   11.7341    8.8179    0.0000 H   0  0  0  0  0  0  0  0  0  0  0  0
   20.9527    3.4159    0.0000 H   0  0  0  0  0  0  0  0  0  0  0  0
    9.4651    8.1279    0.0000 H   0  0  0  0  0  0  0  0  0  0  0  0
   23.2323    4.3196    0.0000 H   0  0  0  0  0  0  0  0  0  0  0  0
   22.3534    3.2097    0.0000 H   0  0  0  0  0  0  0  0  0  0  0  0
   19.5708    5.2420    0.0000 H   0  0  0  0  0  0  0  0  0  0  0  0
   23.2358    2.9725    0.0000 H   0  0  0  0  0  0  0  0  0  0  0  0
   24.0853    3.1896    0.0000 H   0  0  0  0  0  0  0  0  0  0  0  0
   23.8682    4.0392    0.0000 H   0  0  0  0  0  0  0  0  0  0  0  0
    8.5991    4.6279    0.0000 H   0  0  0  0  0  0  0  0  0  0  0  0
   22.3418    2.2097    0.0000 H   0  0  0  0  0  0  0  0  0  0  0  0
   19.5432    2.8621    0.0000 H   0  0  0  0  0  0  0  0  0  0  0  0
    8.5991    2.3879    0.0000 H   0  0  0  0  0  0  0  0  0  0  0  0
   19.2120    2.6760    0.0000 H   0  0  0  0  0  0  0  0  0  0  0  0
    7.1962    2.1979    0.0000 H   0  0  0  0  0  0  0  0  0  0  0  0
    6.8671    4.6279    0.0000 H   0  0  0  0  0  0  0  0  0  0  0  0
    6.3301    3.3179    0.0000 H   0  0  0  0  0  0  0  0  0  0  0  0
   18.6599    1.3723    0.0000 H   0  0  0  0  0  0  0  0  0  0  0  0
   10.0021    2.8179    0.0000 H   0  0  0  0  0  0  0  0  0  0  0  0
   21.1305    0.4510    0.0000 H   0  0  0  0  0  0  0  0  0  0  0  0
   21.5370    1.1366    0.0000 H   0  0  0  0  0  0  0  0  0  0  0  0
   20.5867    0.2299    0.0000 H   0  0  0  0  0  0  0  0  0  0  0  0
    5.3905    4.6156    0.0000 H   0  0  0  0  0  0  0  0  0  0  0  0
    5.7890    3.9253    0.0000 H   0  0  0  0  0  0  0  0  0  0  0  0
   17.8041    2.2622    0.0000 H   0  0  0  0  0  0  0  0  0  0  0  0
    8.2700    1.1979    0.0000 H   0  0  0  0  0  0  0  0  0  0  0  0
   18.3143   -0.0538    0.0000 H   0  0  0  0  0  0  0  0  0  0  0  0
    5.1350    2.3879    0.0000 H   0  0  0  0  0  0  0  0  0  0  0  0
    6.5380    5.8179    0.0000 H   0  0  0  0  0  0  0  0  0  0  0  0
   20.3616   -1.2676    0.0000 H   0  0  0  0  0  0  0  0  0  0  0  0
    5.1350    4.6279    0.0000 H   0  0  0  0  0  0  0  0  0  0  0  0
    3.7320    4.8179    0.0000 H   0  0  0  0  0  0  0  0  0  0  0  0
   22.3143   -0.1701    0.0000 H   0  0  0  0  0  0  0  0  0  0  0  0
    3.4030    2.3879    0.0000 H   0  0  0  0  0  0  0  0  0  0  0  0
    2.8660    3.6979    0.0000 H   0  0  0  0  0  0  0  0  0  0  0  0
   23.1673   -1.3000    0.0000 H   0  0  0  0  0  0  0  0  0  0  0  0
   21.2102   -2.7775    0.0000 H   0  0  0  0  0  0  0  0  0  0  0  0
    6.0010    5.1279    0.0000 H   0  0  0  0  0  0  0  0  0  0  0  0
   23.1629   -1.6800    0.0000 H   0  0  0  0  0  0  0  0  0  0  0  0
    2.2269    3.0449    0.0000 H   0  0  0  0  0  0  0  0  0  0  0  0
    2.0000    2.1979    0.0000 H   0  0  0  0  0  0  0  0  0  0  0  0
    2.8469    1.9710    0.0000 H   0  0  0  0  0  0  0  0  0  0  0  0
    3.7320    5.8179    0.0000 H   0  0  0  0  0  0  0  0  0  0  0  0
   22.3258    0.8298    0.0000 H   0  0  0  0  0  0  0  0  0  0  0  0
    2.0000    4.1979    0.0000 H   0  0  0  0  0  0  0  0  0  0  0  0
   21.9444   -4.0587    0.0000 H   0  0  0  0  0  0  0  0  0  0  0  0
   22.3509   -3.3731    0.0000 H   0  0  0  0  0  0  0  0  0  0  0  0
   24.0390   -0.8101    0.0000 H   0  0  0  0  0  0  0  0  0  0  0  0
   22.9377   -3.1775    0.0000 H   0  0  0  0  0  0  0  0  0  0  0  0
   20.3340   -3.6474    0.0000 H   0  0  0  0  0  0  0  0  0  0  0  0
   24.3384   -3.3837    0.0000 H   0  0  0  0  0  0  0  0  0  0  0  0
   24.8601   -4.6998    0.0000 H   0  0  0  0  0  0  0  0  0  0  0  0
   22.0544   -4.6674    0.0000 H   0  0  0  0  0  0  0  0  0  0  0  0
   22.9074   -5.7973    0.0000 H   0  0  0  0  0  0  0  0  0  0  0  0
   25.7363   -3.8299    0.0000 H   0  0  0  0  0  0  0  0  0  0  0  0
   21.5107   -4.8885    0.0000 H   0  0  0  0  0  0  0  0  0  0  0  0
   21.1042   -5.5741    0.0000 H   0  0  0  0  0  0  0  0  0  0  0  0
   25.1727   -6.1335    0.0000 H   0  0  0  0  0  0  0  0  0  0  0  0
   23.9697   -6.8097    0.0000 H   0  0  0  0  0  0  0  0  0  0  0  0
   20.8398   -6.3435    0.0000 H   0  0  0  0  0  0  0  0  0  0  0  0
   19.4392   -6.1373    0.0000 H   0  0  0  0  0  0  0  0  0  0  0  0
   19.1079   -6.3234    0.0000 H   0  0  0  0  0  0  0  0  0  0  0  0
   20.4827   -8.7695    0.0000 H   0  0  0  0  0  0  0  0  0  0  0  0
   19.0820   -8.5633    0.0000 H   0  0  0  0  0  0  0  0  0  0  0  0
   19.4507   -5.1373    0.0000 H   0  0  0  0  0  0  0  0  0  0  0  0
   19.3178   -9.4461    0.0000 H   0  0  0  0  0  0  0  0  0  0  0  0
   19.9306  -10.0732    0.0000 H   0  0  0  0  0  0  0  0  0  0  0  0
   20.5577   -9.4604    0.0000 H   0  0  0  0  0  0  0  0  0  0  0  0
   17.7001   -6.7372    0.0000 H   0  0  0  0  0  0  0  0  0  0  0  0
   18.2102   -9.0532    0.0000 H   0  0  0  0  0  0  0  0  0  0  0  0
 59  1  1  1  0  0  0
 74  1  1  6  0  0  0
  2 71  1  0  0  0  0
 76  2  1  6  0  0  0
  3 71  2  0  0  0  0
  4 74  1  0  0  0  0
  4 78  1  0  0  0  0
 75  5  1  1  0  0  0
 84  5  1  6  0  0  0
  6 76  1  0  0  0  0
  6 82  1  0  0  0  0
 77  7  1  6  0  0  0
  7184  1  0  0  0  0
 79  8  1  6  0  0  0
  8185  1  0  0  0  0
 80  9  1  1  0  0  0
  9186  1  0  0  0  0
 81 10  1  6  0  0  0
 10190  1  0  0  0  0
 11 84  1  0  0  0  0
 11 88  1  0  0  0  0
 83 12  1  1  0  0  0
 12192  1  0  0  0  0
 13 86  1  0  0  0  0
 91 13  1  1  0  0  0
 85 14  1  1  0  0  0
 14195  1  0  0  0  0
 87 15  1  1  0  0  0
 92 15  1  6  0  0  0
 89 16  1  6  0  0  0
 16200  1  0  0  0  0
 17 91  1  0  0  0  0
 17 96  1  0  0  0  0
 18 92  1  0  0  0  0
 18 99  1  0  0  0  0
 93 19  1  6  0  0  0
 19208  1  0  0  0  0
 94 20  1  1  0  0  0
 20214  1  0  0  0  0
 95 21  1  1  0  0  0
 21215  1  0  0  0  0
 97 22  1  6  0  0  0
102 22  1  6  0  0  0
 98 23  1  1  0  0  0
 23216  1  0  0  0  0
100 24  1  1  0  0  0
103 24  1  1  0  0  0
 25101  1  0  0  0  0
 25218  1  0  0  0  0
 26102  1  0  0  0  0
 26107  1  0  0  0  0
 27103  1  0  0  0  0
 27110  1  0  0  0  0
104 28  1  1  0  0  0
 28227  1  0  0  0  0
105 29  1  1  0  0  0
 29232  1  0  0  0  0
106 30  1  6  0  0  0
 30233  1  0  0  0  0
108 31  1  6  0  0  0
 31234  1  0  0  0  0
109 32  1  1  0  0  0
 32237  1  0  0  0  0
111 33  1  6  0  0  0
114 33  1  1  0  0  0
 34113  1  0  0  0  0
 34239  1  0  0  0  0
 35114  1  0  0  0  0
 35117  1  0  0  0  0
115 36  1  6  0  0  0
 36244  1  0  0  0  0
116 37  1  1  0  0  0
 37247  1  0  0  0  0
118 38  1  6  0  0  0
 38248  1  0  0  0  0
 39119  1  0  0  0  0
120 39  1  6  0  0  0
 40120  1  0  0  0  0
 40123  1  0  0  0  0
121 41  1  1  0  0  0
 41254  1  0  0  0  0
122 42  1  1  0  0  0
 42258  1  0  0  0  0
124 43  1  6  0  0  0
 43259  1  0  0  0  0
 44 45  1  0  0  0  0
 44 47  1  0  0  0  0
 44 49  1  0  0  0  0
 44 58  1  1  0  0  0
 45 46  1  0  0  0  0
 45 54  1  0  0  0  0
 45126  1  6  0  0  0
 46 48  1  0  0  0  0
 46 55  1  0  0  0  0
 46 61  1  1  0  0  0
 47 52  1  0  0  0  0
 47 56  1  0  0  0  0
 47 64  1  6  0  0  0
 48 50  1  0  0  0  0
 48 51  1  0  0  0  0
 48127  1  6  0  0  0
 49 51  1  0  0  0  0
 49128  1  0  0  0  0
 49129  1  0  0  0  0
 50 59  1  0  0  0  0
 50 68  1  0  0  0  0
 50 69  1  0  0  0  0
 51130  1  0  0  0  0
 51131  1  0  0  0  0
 52 53  1  0  0  0  0
 52 62  2  0  0  0  0
 53 57  1  0  0  0  0
 53 65  1  0  0  0  0
 53132  1  1  0  0  0
 54 62  1  0  0  0  0
 54133  1  0  0  0  0
 54134  1  0  0  0  0
 55 63  1  0  0  0  0
 55135  1  0  0  0  0
 55136  1  0  0  0  0
 56 60  1  0  0  0  0
 56137  1  0  0  0  0
 56138  1  0  0  0  0
 57 60  1  0  0  0  0
 57 66  1  0  0  0  0
 57 71  1  1  0  0  0
 58139  1  0  0  0  0
 58140  1  0  0  0  0
 58141  1  0  0  0  0
 59 63  1  0  0  0  0
 59142  1  0  0  0  0
 60143  1  0  0  0  0
 60144  1  0  0  0  0
 61145  1  0  0  0  0
 61146  1  0  0  0  0
 61147  1  0  0  0  0
 62148  1  0  0  0  0
 63149  1  0  0  0  0
 63150  1  0  0  0  0
 64151  1  0  0  0  0
 64152  1  0  0  0  0
 64153  1  0  0  0  0
 65 67  1  0  0  0  0
 65154  1  0  0  0  0
 65155  1  0  0  0  0
 66 70  1  0  0  0  0
 66156  1  0  0  0  0
 66157  1  0  0  0  0
 67 70  1  0  0  0  0
 67 72  1  0  0  0  0
 67 73  1  0  0  0  0
 68158  1  0  0  0  0
 68159  1  0  0  0  0
 68160  1  0  0  0  0
 69161  1  0  0  0  0
 69162  1  0  0  0  0
 69163  1  0  0  0  0
 70164  1  0  0  0  0
 70165  1  0  0  0  0
 72166  1  0  0  0  0
 72167  1  0  0  0  0
 72168  1  0  0  0  0
 73169  1  0  0  0  0
 73170  1  0  0  0  0
 73171  1  0  0  0  0
 74 75  1  0  0  0  0
 74172  1  0  0  0  0
 75 77  1  0  0  0  0
 75173  1  0  0  0  0
 76 80  1  0  0  0  0
 76174  1  0  0  0  0
 77 79  1  0  0  0  0
 77175  1  0  0  0  0
 78 79  1  0  0  0  0
 78176  1  0  0  0  0
 78177  1  0  0  0  0
 79178  1  0  0  0  0
 80 81  1  0  0  0  0
 80179  1  0  0  0  0
 81 83  1  0  0  0  0
 81180  1  0  0  0  0
 82 83  1  0  0  0  0
 82 86  1  6  0  0  0
 82181  1  0  0  0  0
 83182  1  0  0  0  0
 84 85  1  0  0  0  0
 84183  1  0  0  0  0
 85 87  1  0  0  0  0
 85187  1  0  0  0  0
 86188  1  0  0  0  0
 86189  1  0  0  0  0
 87 89  1  0  0  0  0
 87191  1  0  0  0  0
 88 89  1  0  0  0  0
 88 90  1  1  0  0  0
 88193  1  0  0  0  0
 89194  1  0  0  0  0
 90196  1  0  0  0  0
 90197  1  0  0  0  0
 90198  1  0  0  0  0
 91 93  1  0  0  0  0
 91199  1  0  0  0  0
 92 94  1  0  0  0  0
 92201  1  0  0  0  0
 93 95  1  0  0  0  0
 93202  1  0  0  0  0
 94 98  1  0  0  0  0
 94203  1  0  0  0  0
 95 97  1  0  0  0  0
 95204  1  0  0  0  0
 96 97  1  0  0  0  0
 96101  1  1  0  0  0
 96205  1  0  0  0  0
 97206  1  0  0  0  0
 98100  1  0  0  0  0
 98207  1  0  0  0  0
 99100  1  0  0  0  0
 99209  1  0  0  0  0
 99210  1  0  0  0  0
100211  1  0  0  0  0
101212  1  0  0  0  0
101213  1  0  0  0  0
102104  1  0  0  0  0
102217  1  0  0  0  0
103106  1  0  0  0  0
103219  1  0  0  0  0
104105  1  0  0  0  0
104220  1  0  0  0  0
105108  1  0  0  0  0
105221  1  0  0  0  0
106109  1  0  0  0  0
106222  1  0  0  0  0
107108  1  0  0  0  0
107112  1  1  0  0  0
107223  1  0  0  0  0
108224  1  0  0  0  0
109111  1  0  0  0  0
109225  1  0  0  0  0
110111  1  0  0  0  0
110113  1  1  0  0  0
110226  1  0  0  0  0
111228  1  0  0  0  0
112229  1  0  0  0  0
112230  1  0  0  0  0
112231  1  0  0  0  0
113235  1  0  0  0  0
113236  1  0  0  0  0
114115  1  0  0  0  0
114238  1  0  0  0  0
115116  1  0  0  0  0
115240  1  0  0  0  0
116118  1  0  0  0  0
116241  1  0  0  0  0
117118  1  0  0  0  0
117119  1  1  0  0  0
117242  1  0  0  0  0
118243  1  0  0  0  0
119245  1  0  0  0  0
119246  1  0  0  0  0
120121  1  0  0  0  0
120249  1  0  0  0  0
121122  1  0  0  0  0
121250  1  0  0  0  0
122124  1  0  0  0  0
122251  1  0  0  0  0
123124  1  0  0  0  0
123125  1  1  0  0  0
123252  1  0  0  0  0
124253  1  0  0  0  0
125255  1  0  0  0  0
125256  1  0  0  0  0
125257  1  0  0  0  0
M  END
> <PUBCHEM_COMPOUND_CID>
11434888

> <PUBCHEM_COMPOUND_CANONICALIZED>
1

> <PUBCHEM_CACTVS_COMPLEXITY>
3610

> <PUBCHEM_CACTVS_HBOND_ACCEPTOR>
43

> <PUBCHEM_CACTVS_HBOND_DONOR>
24

> <PUBCHEM_CACTVS_ROTATABLE_BOND>
23

> <PUBCHEM_CACTVS_SUBSKEYS>
AAADcfB8PgAAAAAAAAAAAAAAAAAAAAAAAAA0aNGiQAAAAADAAAAAGgAACAAADxSwgAMCCAAABgCIAiDSCAAAAAAgAAAACAEAAAgREBIAAQAiQAAFgAAPAAPI6PyPgAAAAAAAAADAAAYAADAAAAAAAAAAAA==

> <PUBCHEM_IUPAC_OPENEYE_NAME>
[(2S,3R,4S,5S,6R)-6-[[(2R,3R,4R,5S,6R)-3,4-dihydroxy-6-(hydroxymethyl)-5-[(2R,3R,4R,5R,6S)-3,4,5-trihydroxy-6-methyl-tetrahydropyran-2-yl]oxy-tetrahydropyran-2-yl]oxymethyl]-3,4,5-trihydroxy-tetrahydropyran-2-yl] (4aS,6aR,6aS,6bR,8aR,10S,12aR,14bS)-10-[(2S,3R,4S,5S)-3-[(2S,3R,4R,5S,6S)-4-[(2S,3R,4S,5R)-5-[(2R,3R,4R,5S,6R)-3,4-dihydroxy-6-(hydroxymethyl)-5-[(2S,3R,4S,5S,6R)-3,4,5-trihydroxy-6-[[(2R,3R,4R,5R,6S)-3,4,5-trihydroxy-6-methyl-tetrahydropyran-2-yl]oxymethyl]tetrahydropyran-2-yl]oxy-tetrahydropyran-2-yl]oxy-3,4-dihydroxy-tetrahydropyran-2-yl]oxy-3,5-dihydroxy-6-methyl-tetrahydropyran-2-yl]oxy-4,5-dihydroxy-tetrahydropyran-2-yl]oxy-2,2,6a,6b,9,9,12a-heptamethyl-1,3,4,5,6,6a,7,8,8a,10,11,12,13,14b-tetradecahydropicene-4a-carboxylate

> <PUBCHEM_IUPAC_CAS_NAME>
(4aS,6aR,6aS,6bR,8aR,10S,12aR,14bS)-10-[[(2S,3R,4S,5S)-3-[[(2S,3R,4R,5S,6S)-4-[[(2S,3R,4S,5R)-5-[[(2R,3R,4R,5S,6R)-3,4-dihydroxy-6-(hydroxymethyl)-5-[[(2S,3R,4S,5S,6R)-3,4,5-trihydroxy-6-[[(2R,3R,4R,5R,6S)-3,4,5-trihydroxy-6-methyl-2-oxanyl]oxymethyl]-2-oxanyl]oxy]-2-oxanyl]oxy]-3,4-dihydroxy-2-oxanyl]oxy]-3,5-dihydroxy-6-methyl-2-oxanyl]oxy]-4,5-dihydroxy-2-oxanyl]oxy]-2,2,6a,6b,9,9,12a-heptamethyl-1,3,4,5,6,6a,7,8,8a,10,11,12,13,14b-tetradecahydropicene-4a-carboxylic acid [(2S,3R,4S,5S,6R)-6-[[(2R,3R,4R,5S,6R)-3,4-dihydroxy-6-(hydroxymethyl)-5-[[(2R,3R,4R,5R,6S)-3,4,5-trihydroxy-6-methyl-2-oxanyl]oxy]-2-oxanyl]oxymethyl]-3,4,5-trihydroxy-2-oxanyl] ester

> <PUBCHEM_IUPAC_NAME_MARKUP>
[(2<I>S</I>,3<I>R</I>,4<I>S</I>,5<I>S</I>,6<I>R</I>)-6-[[(2<I>R</I>,3<I>R</I>,4<I>R</I>,5<I>S</I>,6<I>R</I>)-3,4-dihydroxy-6-(hydroxymethyl)-5-[(2<I>R</I>,3<I>R</I>,4<I>R</I>,5<I>R</I>,6<I>S</I>)-3,4,5-trihydroxy-6-methyloxan-2-yl]oxyoxan-2-yl]oxymethyl]-3,4,5-trihydroxyoxan-2-yl] (4<I>a</I><I>S</I>,6<I>a</I><I>R</I>,6<I>a</I><I>S</I>,6<I>b</I><I>R</I>,8<I>a</I><I>R</I>,10<I>S</I>,12<I>a</I><I>R</I>,14<I>b</I><I>S</I>)-10-[(2<I>S</I>,3<I>R</I>,4<I>S</I>,5<I>S</I>)-3-[(2<I>S</I>,3<I>R</I>,4<I>R</I>,5<I>S</I>,6<I>S</I>)-4-[(2<I>S</I>,3<I>R</I>,4<I>S</I>,5<I>R</I>)-5-[(2<I>R</I>,3<I>R</I>,4<I>R</I>,5<I>S</I>,6<I>R</I>)-3,4-dihydroxy-6-(hydroxymethyl)-5-[(2<I>S</I>,3<I>R</I>,4<I>S</I>,5<I>S</I>,6<I>R</I>)-3,4,5-trihydroxy-6-[[(2<I>R</I>,3<I>R</I>,4<I>R</I>,5<I>R</I>,6<I>S</I>)-3,4,5-trihydroxy-6-methyloxan-2-yl]oxymethyl]oxan-2-yl]oxyoxan-2-yl]oxy-3,4-dihydroxyoxan-2-yl]oxy-3,5-dihydroxy-6-methyloxan-2-yl]oxy-4,5-dihydroxyoxan-2-yl]oxy-2,2,6<I>a</I>,6<I>b</I>,9,9,12<I>a</I>-heptamethyl-1,3,4,5,6,6<I>a</I>,7,8,8<I>a</I>,10,11,12,13,14<I>b</I>-tetradecahydropicene-4<I>a</I>-carboxylate

> <PUBCHEM_IUPAC_NAME>
[(2S,3R,4S,5S,6R)-6-[[(2R,3R,4R,5S,6R)-3,4-dihydroxy-6-(hydroxymethyl)-5-[(2R,3R,4R,5R,6S)-3,4,5-trihydroxy-6-methyloxan-2-yl]oxyoxan-2-yl]oxymethyl]-3,4,5-trihydroxyoxan-2-yl] (4aS,6aR,6aS,6bR,8aR,10S,12aR,14bS)-10-[(2S,3R,4S,5S)-3-[(2S,3R,4R,5S,6S)-4-[(2S,3R,4S,5R)-5-[(2R,3R,4R,5S,6R)-3,4-dihydroxy-6-(hydroxymethyl)-5-[(2S,3R,4S,5S,6R)-3,4,5-trihydroxy-6-[[(2R,3R,4R,5R,6S)-3,4,5-trihydroxy-6-methyloxan-2-yl]oxymethyl]oxan-2-yl]oxyoxan-2-yl]oxy-3,4-dihydroxyoxan-2-yl]oxy-3,5-dihydroxy-6-methyloxan-2-yl]oxy-4,5-dihydroxyoxan-2-yl]oxy-2,2,6a,6b,9,9,12a-heptamethyl-1,3,4,5,6,6a,7,8,8a,10,11,12,13,14b-tetradecahydropicene-4a-carboxylate

> <PUBCHEM_IUPAC_SYSTEMATIC_NAME>
[(2S,3R,4S,5S,6R)-6-[[(2R,3R,4R,5S,6R)-6-(hydroxymethyl)-5-[(2R,3R,4R,5R,6S)-6-methyl-3,4,5-tris(oxidanyl)oxan-2-yl]oxy-3,4-bis(oxidanyl)oxan-2-yl]oxymethyl]-3,4,5-tris(oxidanyl)oxan-2-yl] (4aS,6aR,6aS,6bR,8aR,10S,12aR,14bS)-10-[(2S,3R,4S,5S)-3-[(2S,3R,4R,5S,6S)-4-[(2S,3R,4S,5R)-5-[(2R,3R,4R,5S,6R)-6-(hydroxymethyl)-5-[(2S,3R,4S,5S,6R)-6-[[(2R,3R,4R,5R,6S)-6-methyl-3,4,5-tris(oxidanyl)oxan-2-yl]oxymethyl]-3,4,5-tris(oxidanyl)oxan-2-yl]oxy-3,4-bis(oxidanyl)oxan-2-yl]oxy-3,4-bis(oxidanyl)oxan-2-yl]oxy-6-methyl-3,5-bis(oxidanyl)oxan-2-yl]oxy-4,5-bis(oxidanyl)oxan-2-yl]oxy-2,2,6a,6b,9,9,12a-heptamethyl-1,3,4,5,6,6a,7,8,8a,10,11,12,13,14b-tetradecahydropicene-4a-carboxylate

> <PUBCHEM_IUPAC_TRADITIONAL_NAME>
(4aS,6aR,6aS,6bR,8aR,10S,12aR,14bS)-10-[(2S,3R,4S,5S)-3-[(2S,3R,4R,5S,6S)-4-[(2S,3R,4S,5R)-5-[(2R,3R,4R,5S,6R)-3,4-dihydroxy-6-methylol-5-[(2S,3R,4S,5S,6R)-3,4,5-trihydroxy-6-[[(2R,3R,4R,5R,6S)-3,4,5-trihydroxy-6-methyl-tetrahydropyran-2-yl]oxymethyl]tetrahydropyran-2-yl]oxy-tetrahydropyran-2-yl]oxy-3,4-dihydroxy-tetrahydropyran-2-yl]oxy-3,5-dihydroxy-6-methyl-tetrahydropyran-2-yl]oxy-4,5-dihydroxy-tetrahydropyran-2-yl]oxy-2,2,6a,6b,9,9,12a-heptamethyl-1,3,4,5,6,6a,7,8,8a,10,11,12,13,14b-tetradecahydropicene-4a-carboxylic acid [(2S,3R,4S,5S,6R)-6-[[(2R,3R,4R,5S,6R)-3,4-dihydroxy-6-methylol-5-[(2R,3R,4R,5R,6S)-3,4,5-trihydroxy-6-methyl-tetrahydropyran-2-yl]oxy-tetrahydropyran-2-yl]oxymethyl]-3,4,5-trihydroxy-tetrahydropyran-2-yl] ester

> <PUBCHEM_IUPAC_INCHI>
InChI=1S/C82H134O43/c1-28-42(86)49(93)56(100)67(112-28)109-25-36-46(90)51(95)58(102)72(118-36)122-64-35(23-84)116-71(61(105)54(64)98)117-38-27-111-69(55(99)48(38)92)123-65-44(88)30(3)114-74(62(65)106)124-66-45(89)33(85)24-108-75(66)120-41-14-15-79(8)39(78(41,6)7)13-16-81(10)40(79)12-11-31-32-21-77(4,5)17-19-82(32,20-18-80(31,81)9)76(107)125-73-59(103)52(96)47(91)37(119-73)26-110-68-60(104)53(97)63(34(22-83)115-68)121-70-57(101)50(94)43(87)29(2)113-70/h11,28-30,32-75,83-106H,12-27H2,1-10H3/t28-,29-,30-,32-,33-,34+,35+,36+,37+,38+,39-,40+,41-,42-,43-,44-,45-,46+,47+,48+,49+,50+,51-,52-,53+,54+,55+,56+,57+,58+,59+,60+,61+,62+,63+,64+,65+,66+,67+,68+,69-,70-,71-,72-,73-,74-,75-,79-,80+,81+,82-/m0/s1

> <PUBCHEM_IUPAC_INCHIKEY>
JFLCHMJGYAFQIU-AOXNNHMFSA-N

> <PUBCHEM_XLOGP3_AA>
-7.6

> <PUBCHEM_EXACT_MASS>
1806.829883

> <PUBCHEM_MOLECULAR_FORMULA>
C82H134O43

> <PUBCHEM_MOLECULAR_WEIGHT>
1807.9

> <PUBCHEM_OPENEYE_CAN_SMILES>
CC1C(C(C(C(O1)OCC2C(C(C(C(O2)OC3C(OC(C(C3O)O)OC4COC(C(C4O)O)OC5C(C(OC(C5O)OC6C(C(COC6OC7CCC8(C(C7(C)C)CCC9(C8CC=C1C9(CCC2(C1CC(CC2)(C)C)C(=O)OC1C(C(C(C(O1)COC1C(C(C(C(O1)CO)OC1C(C(C(C(O1)C)O)O)O)O)O)O)O)O)C)C)C)O)O)C)O)CO)O)O)O)O)O)O

> <PUBCHEM_OPENEYE_ISO_SMILES>
C[C@H]1[C@@H]([C@H]([C@H]([C@@H](O1)OC[C@@H]2[C@H]([C@@H]([C@H]([C@@H](O2)O[C@@H]3[C@H](O[C@H]([C@@H]([C@H]3O)O)O[C@@H]4CO[C@H]([C@@H]([C@@H]4O)O)O[C@@H]5[C@H]([C@@H](O[C@H]([C@@H]5O)O[C@@H]6[C@H]([C@H](CO[C@H]6O[C@H]7CC[C@]8([C@H](C7(C)C)CC[C@@]9([C@@H]8CC=C1[C@]9(CC[C@@]2([C@H]1CC(CC2)(C)C)C(=O)O[C@H]1[C@@H]([C@H]([C@@H]([C@H](O1)CO[C@H]1[C@@H]([C@H]([C@@H]([C@H](O1)CO)O[C@H]1[C@@H]([C@@H]([C@H]([C@@H](O1)C)O)O)O)O)O)O)O)O)C)C)C)O)O)C)O)CO)O)O)O)O)O)O

> <PUBCHEM_CACTVS_TPSA>
669

> <PUBCHEM_MONOISOTOPIC_WEIGHT>
1806.829883

> <PUBCHEM_TOTAL_CHARGE>
0

> <PUBCHEM_HEAVY_ATOM_COUNT>
125

> <PUBCHEM_ATOM_DEF_STEREO_COUNT>
51

> <PUBCHEM_ATOM_UDEF_STEREO_COUNT>
0

> <PUBCHEM_BOND_DEF_STEREO_COUNT>
0

> <PUBCHEM_BOND_UDEF_STEREO_COUNT>
0

> <PUBCHEM_ISOTOPIC_ATOM_COUNT>
0

> <PUBCHEM_COMPONENT_COUNT>
1

> <PUBCHEM_CACTVS_TAUTO_COUNT>
-1

> <PUBCHEM_COORDINATE_TYPE>
1
5
255

> <PUBCHEM_BONDANNOTATIONS>
59  1  5
74  1  6
81  10  6
107  112  5
110  113  5
117  119  5
83  12  5
123  125  5
91  13  5
85  14  5
87  15  5
92  15  6
89  16  6
93  19  6
76  2  6
94  20  5
95  21  5
102  22  6
97  22  6
98  23  5
100  24  5
103  24  5
104  28  5
105  29  5
106  30  6
108  31  6
109  32  5
111  33  6
114  33  5
115  36  6
116  37  5
118  38  6
120  39  6
121  41  5
122  42  5
124  43  6
44  58  5
45  126  6
46  61  5
47  64  6
48  127  6
75  5  5
84  5  6
53  132  5
57  71  5
77  7  6
79  8  6
82  86  6
88  90  5
80  9  5
96  101  5

$$$$
