252471
  -OEChem-11232022203D

 37 39  0     0  0  0  0  0  0999 V2000
    0.5345    2.2158    0.3710 O   0  0  0  0  0  0  0  0  0  0  0  0
    1.8617   -2.3778   -0.3874 O   0  0  0  0  0  0  0  0  0  0  0  0
    5.1237    1.0250    0.3068 O   0  0  0  0  0  0  0  0  0  0  0  0
    4.4719   -1.6184   -0.1737 O   0  0  0  0  0  0  0  0  0  0  0  0
   -0.6141   -1.6292   -0.3684 O   0  0  0  0  0  0  0  0  0  0  0  0
   -6.8137   -0.3130   -0.1322 O   0  0  0  0  0  0  0  0  0  0  0  0
    1.1425   -0.1024   -0.0132 C   0  0  0  0  0  0  0  0  0  0  0  0
    1.4767    1.2295    0.2295 C   0  0  0  0  0  0  0  0  0  0  0  0
   -1.2692    0.6207    0.0540 C   0  0  0  0  0  0  0  0  0  0  0  0
   -0.2793   -0.4767   -0.1267 C   0  0  0  0  0  0  0  0  0  0  0  0
    2.1458   -1.0653   -0.1501 C   0  0  0  0  0  0  0  0  0  0  0  0
   -2.7200    0.3769    0.0047 C   0  0  0  0  0  0  0  0  0  0  0  0
    2.8158    1.6062    0.3364 C   0  0  0  0  0  0  0  0  0  0  0  0
    3.4845   -0.6862   -0.0419 C   0  0  0  0  0  0  0  0  0  0  0  0
    3.8191    0.6466    0.2007 C   0  0  0  0  0  0  0  0  0  0  0  0
   -0.7873    1.8514    0.2845 C   0  0  0  0  0  0  0  0  0  0  0  0
   -3.4081    0.4818   -1.2057 C   0  0  0  0  0  0  0  0  0  0  0  0
   -3.4126    0.0393    1.1693 C   0  0  0  0  0  0  0  0  0  0  0  0
   -4.7828    0.2503   -1.2515 C   0  0  0  0  0  0  0  0  0  0  0  0
   -4.7875   -0.1924    1.1236 C   0  0  0  0  0  0  0  0  0  0  0  0
   -5.4726   -0.0870   -0.0869 C   0  0  0  0  0  0  0  0  0  0  0  0
    1.6884   -3.2182    0.7510 C   0  0  0  0  0  0  0  0  0  0  0  0
    5.7826    1.4229   -0.8937 C   0  0  0  0  0  0  0  0  0  0  0  0
    3.0774    2.6443    0.5258 H   0  0  0  0  0  0  0  0  0  0  0  0
   -1.4118    2.7234    0.4353 H   0  0  0  0  0  0  0  0  0  0  0  0
   -2.8844    0.7426   -2.1224 H   0  0  0  0  0  0  0  0  0  0  0  0
   -2.8928   -0.0479    2.1204 H   0  0  0  0  0  0  0  0  0  0  0  0
   -5.3049    0.3354   -2.2009 H   0  0  0  0  0  0  0  0  0  0  0  0
   -5.3192   -0.4550    2.0341 H   0  0  0  0  0  0  0  0  0  0  0  0
    4.0662   -2.4706   -0.4079 H   0  0  0  0  0  0  0  0  0  0  0  0
    0.9990   -2.7745    1.4766 H   0  0  0  0  0  0  0  0  0  0  0  0
    2.6531   -3.4097    1.2307 H   0  0  0  0  0  0  0  0  0  0  0  0
    1.2732   -4.1714    0.4124 H   0  0  0  0  0  0  0  0  0  0  0  0
    6.8152    1.6849   -0.6472 H   0  0  0  0  0  0  0  0  0  0  0  0
    5.2927    2.3009   -1.3267 H   0  0  0  0  0  0  0  0  0  0  0  0
    5.7931    0.6027   -1.6184 H   0  0  0  0  0  0  0  0  0  0  0  0
   -7.1221   -0.1967   -1.0473 H   0  0  0  0  0  0  0  0  0  0  0  0
  1  8  1  0  0  0  0
  1 16  1  0  0  0  0
  2 11  1  0  0  0  0
  2 22  1  0  0  0  0
  3 15  1  0  0  0  0
  3 23  1  0  0  0  0
  4 14  1  0  0  0  0
  4 30  1  0  0  0  0
  5 10  2  0  0  0  0
  6 21  1  0  0  0  0
  6 37  1  0  0  0  0
  7  8  1  0  0  0  0
  7 10  1  0  0  0  0
  7 11  2  0  0  0  0
  8 13  2  0  0  0  0
  9 10  1  0  0  0  0
  9 12  1  0  0  0  0
  9 16  2  0  0  0  0
 11 14  1  0  0  0  0
 12 17  2  0  0  0  0
 12 18  1  0  0  0  0
 13 15  1  0  0  0  0
 13 24  1  0  0  0  0
 14 15  2  0  0  0  0
 16 25  1  0  0  0  0
 17 19  1  0  0  0  0
 17 26  1  0  0  0  0
 18 20  2  0  0  0  0
 18 27  1  0  0  0  0
 19 21  2  0  0  0  0
 19 28  1  0  0  0  0
 20 21  1  0  0  0  0
 20 29  1  0  0  0  0
 22 31  1  0  0  0  0
 22 32  1  0  0  0  0
 22 33  1  0  0  0  0
 23 34  1  0  0  0  0
 23 35  1  0  0  0  0
 23 36  1  0  0  0  0
M  END
> <PUBCHEM_COMPOUND_CID>
252471

> <PUBCHEM_CONFORMER_RMSD>
0.6

> <PUBCHEM_CONFORMER_DIVERSEORDER>
2
3
4
1

> <PUBCHEM_MMFF94_PARTIAL_CHARGES>
31
1 -0.16
10 0.47
11 0.08
12 0.03
13 -0.15
14 0.08
15 0.08
16 -0.07
17 -0.15
18 -0.15
19 -0.15
2 -0.36
20 -0.15
21 0.08
22 0.28
23 0.28
24 0.15
25 0.15
26 0.15
27 0.15
28 0.15
29 0.15
3 -0.36
30 0.45
37 0.45
4 -0.53
5 -0.57
6 -0.53
7 0.09
8 0.08
9 -0.01

> <PUBCHEM_EFFECTIVE_ROTOR_COUNT>
3

> <PUBCHEM_PHARMACOPHORE_FEATURES>
9
1 1 acceptor
1 2 acceptor
1 3 acceptor
1 4 donor
1 5 acceptor
1 6 donor
6 1 7 8 9 10 16 rings
6 12 17 18 19 20 21 rings
6 7 8 11 13 14 15 rings

> <PUBCHEM_HEAVY_ATOM_COUNT>
23

> <PUBCHEM_ATOM_DEF_STEREO_COUNT>
0

> <PUBCHEM_ATOM_UDEF_STEREO_COUNT>
0

> <PUBCHEM_BOND_DEF_STEREO_COUNT>
0

> <PUBCHEM_BOND_UDEF_STEREO_COUNT>
0

> <PUBCHEM_ISOTOPIC_ATOM_COUNT>
0

> <PUBCHEM_COMPONENT_COUNT>
1

> <PUBCHEM_CACTVS_TAUTO_COUNT>
6

> <PUBCHEM_CONFORMER_ID>
0003DA3700000002

> <PUBCHEM_MMFF94_ENERGY>
92.6149

> <PUBCHEM_FEATURE_SELFOVERLAP>
45.713

> <PUBCHEM_SHAPE_FINGERPRINT>
10 15 18115017628366925184
10090160 65 18334293175873512150
10411042 1 17907297655160914278
11471102 20 18411697686330521764
12011746 2 18412267254612469796
12107183 9 17480875121484945051
12236239 1 17561083601430824873
12596602 18 17131548444557935353
12730499 353 18334860523641628362
12788726 201 17489314044779248537
12838862 33 18340750638082224184
13140716 1 18196930191656716408
13402501 40 18260272979534846827
13836976 161 18335424603593441916
13862211 1 18341047424269009970
13911987 19 18262251022259364116
14386348 63 18041001730909681467
14787075 74 18413952793015752546
14790565 3 18193847174233135892
15196674 1 18340769234699596736
15537594 2 18202279221294341711
15961568 22 16660651794852686460
17492 89 18124594171937417591
18681886 176 16630238207937608065
19489759 90 16443061695200892229
200 152 18201997725175356841
20028762 73 18131066000547718334
20511986 3 17845925252617871161
20645477 70 18340484474009562327
21033648 29 18261657243094157757
21065198 48 17989213599269891193
21267235 1 18342462491707924942
21623969 137 18335709359819619675
21641784 216 18261971664733757500
22224240 67 18341044220413097264
23557571 272 17313098623515592165
23559900 14 17241331252754409475
23569943 247 17416146991911836782
2871803 45 18409730621421132672
335352 9 18412548743539550148
33824 294 18409446968753890106
34797466 226 16805614671827583253
34934 24 18413102879107256487
3545911 37 18411419544005774781
4073 2 18187370930955501595
42630746 31 18342175570464496646
4340502 62 17167860863625963962
46194498 28 17749108928443856909
5104073 3 18268707221404053192
5283173 99 17896874366522998653
542803 24 17275105024871219817
5486654 2 18411143571325294988

> <PUBCHEM_SHAPE_MULTIPOLES>
438.11
12.66
2.24
0.95
7.85
1.43
-0.05
-1.52
-1.46
-2.86
0.27
0.78
-0.04
0.04

> <PUBCHEM_SHAPE_SELFOVERLAP>
968.622

> <PUBCHEM_SHAPE_VOLUME>
235.2

> <PUBCHEM_COORDINATE_TYPE>
2
5
10

$$$$
