6708635
  -OEChem-11232022093D

 45 47  0     0  0  0  0  0  0999 V2000
    1.4238   -1.9286    1.3459 O   0  0  0  0  0  0  0  0  0  0  0  0
   -1.6363   -1.5527   -1.9610 O   0  0  0  0  0  0  0  0  0  0  0  0
    5.4778    1.4064   -0.3698 O   0  0  0  0  0  0  0  0  0  0  0  0
   -4.6340    1.2199    1.7465 O   0  0  0  0  0  0  0  0  0  0  0  0
    2.8974    2.0722   -0.9474 O   0  0  0  0  0  0  0  0  0  0  0  0
    0.3993    1.4460   -0.7065 O   0  0  0  0  0  0  0  0  0  0  0  0
   -5.8234    0.2082   -0.5528 O   0  0  0  0  0  0  0  0  0  0  0  0
    6.0425   -0.8982    1.0493 O   0  0  0  0  0  0  0  0  0  0  0  0
   -0.3233   -0.5469    0.3780 C   0  0  0  0  0  0  0  0  0  0  0  0
    2.1057    0.0902    0.1839 C   0  0  0  0  0  0  0  0  0  0  0  0
   -1.7601   -0.3571    0.1204 C   0  0  0  0  0  0  0  0  0  0  0  0
    0.6987    0.4212   -0.1074 C   0  0  0  0  0  0  0  0  0  0  0  0
    2.3961   -1.0712    0.8990 C   0  0  0  0  0  0  0  0  0  0  0  0
   -2.3624   -0.8645   -1.0343 C   0  0  0  0  0  0  0  0  0  0  0  0
    3.1384    0.9281   -0.2456 C   0  0  0  0  0  0  0  0  0  0  0  0
   -2.5318    0.3436    1.0511 C   0  0  0  0  0  0  0  0  0  0  0  0
    0.1178   -1.6208    1.0501 C   0  0  0  0  0  0  0  0  0  0  0  0
    3.7203   -1.4013    1.1890 C   0  0  0  0  0  0  0  0  0  0  0  0
    4.4621    0.5954    0.0450 C   0  0  0  0  0  0  0  0  0  0  0  0
   -3.8954    0.5357    0.8289 C   0  0  0  0  0  0  0  0  0  0  0  0
   -3.7260   -0.6723   -1.2566 C   0  0  0  0  0  0  0  0  0  0  0  0
    4.7527   -0.5666    0.7608 C   0  0  0  0  0  0  0  0  0  0  0  0
   -4.4925    0.0278   -0.3249 C   0  0  0  0  0  0  0  0  0  0  0  0
   -1.0394   -0.7931   -3.0093 C   0  0  0  0  0  0  0  0  0  0  0  0
    6.0345    1.1391   -1.6544 C   0  0  0  0  0  0  0  0  0  0  0  0
   -4.7345    2.6322    1.5749 C   0  0  0  0  0  0  0  0  0  0  0  0
   -6.7080   -0.7926   -0.0527 C   0  0  0  0  0  0  0  0  0  0  0  0
   -2.0758    0.7438    1.9544 H   0  0  0  0  0  0  0  0  0  0  0  0
   -0.5323   -2.3918    1.4450 H   0  0  0  0  0  0  0  0  0  0  0  0
    3.9485   -2.3060    1.7468 H   0  0  0  0  0  0  0  0  0  0  0  0
   -4.1917   -1.0679   -2.1558 H   0  0  0  0  0  0  0  0  0  0  0  0
    1.9504    2.1752   -1.1244 H   0  0  0  0  0  0  0  0  0  0  0  0
    6.6246   -0.1921    0.7199 H   0  0  0  0  0  0  0  0  0  0  0  0
    0.0060   -0.5888   -2.7641 H   0  0  0  0  0  0  0  0  0  0  0  0
   -1.5684    0.1485   -3.1924 H   0  0  0  0  0  0  0  0  0  0  0  0
   -1.0682   -1.3921   -3.9240 H   0  0  0  0  0  0  0  0  0  0  0  0
    6.8517    1.8447   -1.8269 H   0  0  0  0  0  0  0  0  0  0  0  0
    5.2813    1.2796   -2.4361 H   0  0  0  0  0  0  0  0  0  0  0  0
    6.4361    0.1219   -1.7009 H   0  0  0  0  0  0  0  0  0  0  0  0
   -5.2048    2.8715    0.6160 H   0  0  0  0  0  0  0  0  0  0  0  0
   -3.7452    3.0970    1.6349 H   0  0  0  0  0  0  0  0  0  0  0  0
   -5.3580    3.0316    2.3794 H   0  0  0  0  0  0  0  0  0  0  0  0
   -6.6266   -0.8700    1.0360 H   0  0  0  0  0  0  0  0  0  0  0  0
   -6.4925   -1.7607   -0.5157 H   0  0  0  0  0  0  0  0  0  0  0  0
   -7.7314   -0.5033   -0.3070 H   0  0  0  0  0  0  0  0  0  0  0  0
  1 13  1  0  0  0  0
  1 17  1  0  0  0  0
  2 14  1  0  0  0  0
  2 24  1  0  0  0  0
  3 19  1  0  0  0  0
  3 25  1  0  0  0  0
  4 20  1  0  0  0  0
  4 26  1  0  0  0  0
  5 15  1  0  0  0  0
  5 32  1  0  0  0  0
  6 12  2  0  0  0  0
  7 23  1  0  0  0  0
  7 27  1  0  0  0  0
  8 22  1  0  0  0  0
  8 33  1  0  0  0  0
  9 11  1  0  0  0  0
  9 12  1  0  0  0  0
  9 17  2  0  0  0  0
 10 12  1  0  0  0  0
 10 13  2  0  0  0  0
 10 15  1  0  0  0  0
 11 14  1  0  0  0  0
 11 16  2  0  0  0  0
 13 18  1  0  0  0  0
 14 21  2  0  0  0  0
 15 19  2  0  0  0  0
 16 20  1  0  0  0  0
 16 28  1  0  0  0  0
 17 29  1  0  0  0  0
 18 22  2  0  0  0  0
 18 30  1  0  0  0  0
 19 22  1  0  0  0  0
 20 23  2  0  0  0  0
 21 23  1  0  0  0  0
 21 31  1  0  0  0  0
 24 34  1  0  0  0  0
 24 35  1  0  0  0  0
 24 36  1  0  0  0  0
 25 37  1  0  0  0  0
 25 38  1  0  0  0  0
 25 39  1  0  0  0  0
 26 40  1  0  0  0  0
 26 41  1  0  0  0  0
 26 42  1  0  0  0  0
 27 43  1  0  0  0  0
 27 44  1  0  0  0  0
 27 45  1  0  0  0  0
M  END
> <PUBCHEM_COMPOUND_CID>
6708635

> <PUBCHEM_CONFORMER_RMSD>
0.8

> <PUBCHEM_CONFORMER_DIVERSEORDER>
1
7
6
2
8
9
4
5
3

> <PUBCHEM_MMFF94_PARTIAL_CHARGES>
33
1 -0.16
10 0.09
11 0.03
12 0.47
13 0.08
14 0.08
15 0.08
16 -0.15
17 -0.07
18 -0.15
19 0.08
2 -0.36
20 0.08
21 -0.15
22 0.08
23 0.08
24 0.28
25 0.28
26 0.28
27 0.28
28 0.15
29 0.15
3 -0.36
30 0.15
31 0.15
32 0.45
33 0.45
4 -0.36
5 -0.53
6 -0.57
7 -0.36
8 -0.53
9 -0.01

> <PUBCHEM_EFFECTIVE_ROTOR_COUNT>
5

> <PUBCHEM_PHARMACOPHORE_FEATURES>
11
1 1 acceptor
1 2 acceptor
1 3 acceptor
1 4 acceptor
1 5 donor
1 6 acceptor
1 7 acceptor
1 8 donor
6 1 9 10 12 13 17 rings
6 10 13 15 18 19 22 rings
6 11 14 16 20 21 23 rings

> <PUBCHEM_HEAVY_ATOM_COUNT>
27

> <PUBCHEM_ATOM_DEF_STEREO_COUNT>
0

> <PUBCHEM_ATOM_UDEF_STEREO_COUNT>
0

> <PUBCHEM_BOND_DEF_STEREO_COUNT>
0

> <PUBCHEM_BOND_UDEF_STEREO_COUNT>
0

> <PUBCHEM_ISOTOPIC_ATOM_COUNT>
0

> <PUBCHEM_COMPONENT_COUNT>
1

> <PUBCHEM_CACTVS_TAUTO_COUNT>
12

> <PUBCHEM_CONFORMER_ID>
00665D9B00000001

> <PUBCHEM_MMFF94_ENERGY>
126.3253

> <PUBCHEM_FEATURE_SELFOVERLAP>
55.857

> <PUBCHEM_SHAPE_FINGERPRINT>
10411042 1 17608354754710757554
105312 117 17275100588138660053
10670039 82 17775011154556606961
10906281 52 18334588949418869402
11796584 16 16558747949442258686
12107183 9 17692249638928743491
12236239 1 18413666911824647787
12403259 415 16660913418653863398
12516196 113 14996003255157712255
12596602 18 18408884053624177635
12788726 201 18341059532114516872
12916748 109 17632579361985301923
13782708 43 15123507012464954437
14294032 229 17488746671853927281
14386348 63 16226045574609590203
14790565 3 18260271828473171956
14840074 17 18333735723219929692
15081414 286 17894355484362937132
15183329 4 17846505824420947428
17844677 252 17386003936243390084
17980427 23 18341339916375164981
19489759 90 16845852395078530265
20511986 3 18341881979095374800
20600515 1 13912607109339245583
21033648 29 16950829384284573037
21033650 10 17631474317980856144
21133410 230 14307527097364472203
21267235 1 18114177494040179738
21756936 100 18340216270513126680
21792961 116 16660919964785532746
22122407 14 18334022670597593489
22182313 1 16805590435707323286
23559900 14 13695593239025689995
23569943 247 17977665308311676794
3298306 158 15841554041819608710
335352 9 18113056043983258130
34797466 226 16702020928511324248
350125 39 17751651071998827331
3633792 109 18114169806291299951
4073 2 17022626403094424987
474 4 18260831526698013304
5104073 3 17895192268561736528
5265222 85 16773233037110280020
542803 24 18343585135507038552
9849439 229 16768470768883456817

> <PUBCHEM_SHAPE_MULTIPOLES>
508.69
14.45
1.87
1.82
0.12
0.33
-0.14
-2.84
2.31
-3.33
0.82
2.72
-0.05
0.58

> <PUBCHEM_SHAPE_SELFOVERLAP>
1113.135

> <PUBCHEM_SHAPE_VOLUME>
276.3

> <PUBCHEM_COORDINATE_TYPE>
2
5
10

$$$$
