442768
  -OEChem-11232022183D

 32 34  0     0  0  0  0  0  0999 V2000
    1.2788   -2.3523    0.0004 O   0  0  0  0  0  0  0  0  0  0  0  0
    4.2586    1.3688   -0.0013 O   0  0  0  0  0  0  0  0  0  0  0  0
    2.1050    3.1219    0.0017 O   0  0  0  0  0  0  0  0  0  0  0  0
   -0.1419   -4.1432    0.0003 O   0  0  0  0  0  0  0  0  0  0  0  0
    0.3475   -0.0981    0.0006 C   0  0  0  0  0  0  0  0  0  0  0  0
   -1.0078   -0.6697    0.0002 C   0  0  0  0  0  0  0  0  0  0  0  0
    1.4472   -0.9546   -0.0001 C   0  0  0  0  0  0  0  0  0  0  0  0
   -2.2592    0.0829   -0.0009 C   0  0  0  0  0  0  0  0  0  0  0  0
    0.5895    1.2819    0.0025 C   0  0  0  0  0  0  0  0  0  0  0  0
    2.7587   -0.4779   -0.0003 C   0  0  0  0  0  0  0  0  0  0  0  0
   -1.1340   -2.0069   -0.0004 C   0  0  0  0  0  0  0  0  0  0  0  0
    1.8990    1.7743    0.0021 C   0  0  0  0  0  0  0  0  0  0  0  0
    2.9817    0.8956    0.0003 C   0  0  0  0  0  0  0  0  0  0  0  0
    0.0176   -2.9274    0.0008 C   0  0  0  0  0  0  0  0  0  0  0  0
   -2.8521    0.4391   -1.2087 C   0  0  0  0  0  0  0  0  0  0  0  0
   -2.8525    0.4376    1.2072 C   0  0  0  0  0  0  0  0  0  0  0  0
   -4.0486    1.1562   -1.2084 C   0  0  0  0  0  0  0  0  0  0  0  0
   -4.0489    1.1548    1.2074 C   0  0  0  0  0  0  0  0  0  0  0  0
   -4.6470    1.5140   -0.0004 C   0  0  0  0  0  0  0  0  0  0  0  0
    5.3083    0.4029   -0.0030 C   0  0  0  0  0  0  0  0  0  0  0  0
   -0.2339    1.9926    0.0034 H   0  0  0  0  0  0  0  0  0  0  0  0
    3.5492   -1.2202   -0.0010 H   0  0  0  0  0  0  0  0  0  0  0  0
   -2.1098   -2.4870   -0.0013 H   0  0  0  0  0  0  0  0  0  0  0  0
   -2.3975    0.1683   -2.1585 H   0  0  0  0  0  0  0  0  0  0  0  0
   -2.3983    0.1657    2.1569 H   0  0  0  0  0  0  0  0  0  0  0  0
   -4.5141    1.4362   -2.1489 H   0  0  0  0  0  0  0  0  0  0  0  0
   -4.5147    1.4336    2.1480 H   0  0  0  0  0  0  0  0  0  0  0  0
   -5.5785    2.0724   -0.0003 H   0  0  0  0  0  0  0  0  0  0  0  0
    3.0643    3.2846    0.0010 H   0  0  0  0  0  0  0  0  0  0  0  0
    5.2946   -0.2062   -0.9133 H   0  0  0  0  0  0  0  0  0  0  0  0
    5.2970   -0.2068    0.9069 H   0  0  0  0  0  0  0  0  0  0  0  0
    6.2540    0.9548   -0.0041 H   0  0  0  0  0  0  0  0  0  0  0  0
  1  7  1  0  0  0  0
  1 14  1  0  0  0  0
  2 13  1  0  0  0  0
  2 20  1  0  0  0  0
  3 12  1  0  0  0  0
  3 29  1  0  0  0  0
  4 14  2  0  0  0  0
  5  6  1  0  0  0  0
  5  7  1  0  0  0  0
  5  9  2  0  0  0  0
  6  8  1  0  0  0  0
  6 11  2  0  0  0  0
  7 10  2  0  0  0  0
  8 15  2  0  0  0  0
  8 16  1  0  0  0  0
  9 12  1  0  0  0  0
  9 21  1  0  0  0  0
 10 13  1  0  0  0  0
 10 22  1  0  0  0  0
 11 14  1  0  0  0  0
 11 23  1  0  0  0  0
 12 13  2  0  0  0  0
 15 17  1  0  0  0  0
 15 24  1  0  0  0  0
 16 18  2  0  0  0  0
 16 25  1  0  0  0  0
 17 19  2  0  0  0  0
 17 26  1  0  0  0  0
 18 19  1  0  0  0  0
 18 27  1  0  0  0  0
 19 28  1  0  0  0  0
 20 30  1  0  0  0  0
 20 31  1  0  0  0  0
 20 32  1  0  0  0  0
M  END
> <PUBCHEM_COMPOUND_CID>
442768

> <PUBCHEM_CONFORMER_RMSD>
0.6

> <PUBCHEM_CONFORMER_DIVERSEORDER>
1
2
3

> <PUBCHEM_MMFF94_PARTIAL_CHARGES>
29
1 -0.23
10 -0.15
11 -0.14
12 0.08
13 0.08
14 0.71
15 -0.15
16 -0.15
17 -0.15
18 -0.15
19 -0.15
2 -0.36
20 0.28
21 0.15
22 0.15
23 0.15
24 0.15
25 0.15
26 0.15
27 0.15
28 0.15
29 0.45
3 -0.53
4 -0.57
5 0.03
6 -0.06
7 0.08
8 0.03
9 -0.15

> <PUBCHEM_EFFECTIVE_ROTOR_COUNT>
2

> <PUBCHEM_PHARMACOPHORE_FEATURES>
6
1 2 acceptor
1 3 donor
1 4 acceptor
6 1 5 6 7 11 14 rings
6 5 7 9 10 12 13 rings
6 8 15 16 17 18 19 rings

> <PUBCHEM_HEAVY_ATOM_COUNT>
20

> <PUBCHEM_ATOM_DEF_STEREO_COUNT>
0

> <PUBCHEM_ATOM_UDEF_STEREO_COUNT>
0

> <PUBCHEM_BOND_DEF_STEREO_COUNT>
0

> <PUBCHEM_BOND_UDEF_STEREO_COUNT>
0

> <PUBCHEM_ISOTOPIC_ATOM_COUNT>
0

> <PUBCHEM_COMPONENT_COUNT>
1

> <PUBCHEM_CACTVS_TAUTO_COUNT>
3

> <PUBCHEM_CONFORMER_ID>
0006C19000000001

> <PUBCHEM_MMFF94_ENERGY>
77.0885

> <PUBCHEM_FEATURE_SELFOVERLAP>
30.473

> <PUBCHEM_SHAPE_FINGERPRINT>
10411042 1 17401768519399531403
10493431 412 18411985779651382184
10693767 8 17915170226538980902
10967382 1 18338797801692098176
11471102 20 18338514144909125925
11640471 11 17487912111740474625
11725454 13 17024841846252406143
12236239 1 17703507697621020049
12500047 106 18339357586687268992
12553582 1 17619634583864107831
12643181 29 18411426107977008406
12730499 353 18335423418509190661
12788726 201 17833816549514169066
13009979 54 17271441289040597715
13140716 1 18337674251391245400
13583140 156 16877929573045643529
138480 1 17834113043896282114
14178342 30 18049705610968129552
14790565 3 18338246981223128452
15099037 51 18410293618904212940
15309172 13 18409169917714631577
1601671 61 18333733498870286956
16945 1 18266459806641154467
1813 80 17266948628410373111
18186145 218 18342181050605467573
18219364 16 18335990821874459577
19049666 15 17607807189018141253
19784866 34 18412825755074464665
20157964 124 18266456508929437901
204376 136 18409450280131314755
20510252 161 17908139137536450795
20645477 70 18190452767031317151
20739085 24 18119263774241916720
212916 134 18199730549167496112
21307412 95 17986700133312192598
21524375 3 18261393394478210763
21639500 275 18338226060489196367
21731228 192 18335426798047416955
22182313 1 18268452229080040638
22182937 141 18268152131040069435
2255824 54 18126284143126978759
231179 274 18187080633187562636
23402539 116 18131630084451061348
23558518 356 17829044656596605706
23559900 14 18272375326203501436
23598291 2 17844517813151345079
238 59 17757226536849897613
25 1 18410290289739965079
2748010 2 18337405905923959919
293599 30 18409169922262942956
3060560 45 18411415068702730158
3084891 72 18341895182119929616
3091708 16 9192126665315493451
335352 9 18410856564799979036
350125 39 18265902539045354547
3886686 26 17908383130918885920
404807 14 14686146370161732694
474 4 18413107230341455681
5104073 3 18263638636573116080
633830 44 18130235852225112045
7164475 11 17834391607227862870
7226269 152 18131069342580407096
7364860 26 18266741268711883751
77492 1 17559383666238857891
81228 2 17613995618015564131
8272917 22 18268712702024635925
84936 182 18130216069611327065

> <PUBCHEM_SHAPE_MULTIPOLES>
388.11
8.34
3.24
0.91
0.78
3.09
0
-6.09
0.01
1.16
0
-1.08
-0.22
0

> <PUBCHEM_SHAPE_SELFOVERLAP>
859.756

> <PUBCHEM_SHAPE_VOLUME>
208.1

> <PUBCHEM_COORDINATE_TYPE>
2
5
10

$$$$
