10400054
  -OEChem-11232022183D

 33 34  0     1  0  0  0  0  0999 V2000
    4.4114    0.5201   -0.0025 O   0  0  0  0  0  0  0  0  0  0  0  0
    0.8353   -1.8261   -1.9812 O   0  0  0  0  0  0  0  0  0  0  0  0
    2.6016    1.2572    1.9836 O   0  0  0  0  0  0  0  0  0  0  0  0
   -1.0989   -1.1438   -0.0228 C   0  0  2  0  0  0  0  0  0  0  0  0
    0.3233   -0.6795    0.0364 C   0  0  0  0  0  0  0  0  0  0  0  0
   -2.0904    0.0061   -0.1508 C   0  0  0  0  0  0  0  0  0  0  0  0
    1.2271   -1.1158   -1.0605 C   0  0  0  0  0  0  0  0  0  0  0  0
    0.7929    0.0956    1.0211 C   0  0  0  0  0  0  0  0  0  0  0  0
   -1.4333   -2.0204    1.1645 C   0  0  0  0  0  0  0  0  0  0  0  0
   -2.5962    0.5793    0.9971 C   0  0  0  0  0  0  0  0  0  0  0  0
   -2.4502    0.4372   -1.4105 C   0  0  0  0  0  0  0  0  0  0  0  0
    2.1993    0.5472    1.0678 C   0  0  0  0  0  0  0  0  0  0  0  0
    2.6341   -0.6640   -1.0133 C   0  0  0  0  0  0  0  0  0  0  0  0
    3.0953    0.1104   -0.0261 C   0  0  0  0  0  0  0  0  0  0  0  0
   -3.5037    1.6321    0.8799 C   0  0  0  0  0  0  0  0  0  0  0  0
   -3.3576    1.4902   -1.5274 C   0  0  0  0  0  0  0  0  0  0  0  0
   -3.8843    2.0876   -0.3822 C   0  0  0  0  0  0  0  0  0  0  0  0
   -2.2743   -3.0607    1.1153 C   0  0  0  0  0  0  0  0  0  0  0  0
    4.5686    1.7473   -0.6884 C   0  0  0  0  0  0  0  0  0  0  0  0
   -1.2480   -1.7761   -0.9091 H   0  0  0  0  0  0  0  0  0  0  0  0
    0.1674    0.4308    1.8412 H   0  0  0  0  0  0  0  0  0  0  0  0
   -0.9820   -1.7971    2.1295 H   0  0  0  0  0  0  0  0  0  0  0  0
   -2.3129    0.2627    1.9954 H   0  0  0  0  0  0  0  0  0  0  0  0
   -2.0433   -0.0201   -2.3073 H   0  0  0  0  0  0  0  0  0  0  0  0
    3.2836   -0.9904   -1.8192 H   0  0  0  0  0  0  0  0  0  0  0  0
   -3.9113    2.1001    1.7714 H   0  0  0  0  0  0  0  0  0  0  0  0
   -3.6534    1.8456   -2.5102 H   0  0  0  0  0  0  0  0  0  0  0  0
   -4.5900    2.9080   -0.4733 H   0  0  0  0  0  0  0  0  0  0  0  0
   -2.4778   -3.6458    2.0054 H   0  0  0  0  0  0  0  0  0  0  0  0
   -2.7721   -3.3441    0.1945 H   0  0  0  0  0  0  0  0  0  0  0  0
    5.6204    2.0416   -0.6236 H   0  0  0  0  0  0  0  0  0  0  0  0
    3.9679    2.5413   -0.2309 H   0  0  0  0  0  0  0  0  0  0  0  0
    4.3123    1.6462   -1.7489 H   0  0  0  0  0  0  0  0  0  0  0  0
  1 14  1  0  0  0  0
  1 19  1  0  0  0  0
  2  7  2  0  0  0  0
  3 12  2  0  0  0  0
  4  5  1  0  0  0  0
  4  6  1  0  0  0  0
  4  9  1  0  0  0  0
  4 20  1  0  0  0  0
  5  7  1  0  0  0  0
  5  8  2  0  0  0  0
  6 10  2  0  0  0  0
  6 11  1  0  0  0  0
  7 13  1  0  0  0  0
  8 12  1  0  0  0  0
  8 21  1  0  0  0  0
  9 18  2  0  0  0  0
  9 22  1  0  0  0  0
 10 15  1  0  0  0  0
 10 23  1  0  0  0  0
 11 16  2  0  0  0  0
 11 24  1  0  0  0  0
 12 14  1  0  0  0  0
 13 14  2  0  0  0  0
 13 25  1  0  0  0  0
 15 17  2  0  0  0  0
 15 26  1  0  0  0  0
 16 17  1  0  0  0  0
 16 27  1  0  0  0  0
 17 28  1  0  0  0  0
 18 29  1  0  0  0  0
 18 30  1  0  0  0  0
 19 31  1  0  0  0  0
 19 32  1  0  0  0  0
 19 33  1  0  0  0  0
M  END
> <PUBCHEM_COMPOUND_CID>
10400054

> <PUBCHEM_CONFORMER_RMSD>
0.6

> <PUBCHEM_CONFORMER_DIVERSEORDER>
1
26
22
3
21
20
16
18
29
8
30
19
25
24
27
15
11
10
13
9
23
28
4
5
12
17
14
7
6
2

> <PUBCHEM_MMFF94_PARTIAL_CHARGES>
29
1 -0.36
10 -0.15
11 -0.15
12 0.54
13 -0.14
14 0.09
15 -0.15
16 -0.15
17 -0.15
18 -0.3
19 0.28
2 -0.57
21 0.15
22 0.15
23 0.15
24 0.15
25 0.15
26 0.15
27 0.15
28 0.15
29 0.15
3 -0.57
30 0.15
4 0.42
5 -0.12
6 -0.14
7 0.54
8 -0.14
9 -0.29

> <PUBCHEM_EFFECTIVE_ROTOR_COUNT>
4

> <PUBCHEM_PHARMACOPHORE_FEATURES>
6
1 1 acceptor
1 18 hydrophobe
1 2 acceptor
1 3 acceptor
6 5 7 8 12 13 14 rings
6 6 10 11 15 16 17 rings

> <PUBCHEM_HEAVY_ATOM_COUNT>
19

> <PUBCHEM_ATOM_DEF_STEREO_COUNT>
1

> <PUBCHEM_ATOM_UDEF_STEREO_COUNT>
0

> <PUBCHEM_BOND_DEF_STEREO_COUNT>
0

> <PUBCHEM_BOND_UDEF_STEREO_COUNT>
0

> <PUBCHEM_ISOTOPIC_ATOM_COUNT>
0

> <PUBCHEM_COMPONENT_COUNT>
1

> <PUBCHEM_CACTVS_TAUTO_COUNT>
3

> <PUBCHEM_CONFORMER_ID>
009EB13600000001

> <PUBCHEM_MMFF94_ENERGY>
55.4107

> <PUBCHEM_FEATURE_SELFOVERLAP>
30.45

> <PUBCHEM_SHAPE_FINGERPRINT>
10165383 225 17829928384709211799
10498660 4 18262231115170479581
11405975 8 18259985977219815754
12251169 10 14057011477177667913
12363563 72 10879693391472965973
12500047 106 18333726914447863530
12707595 3 12318581382290551829
12730499 353 18130510739096510855
12892183 10 15719670957377628813
13464514 151 18129667374474596914
13583140 156 18194661860972643738
13675066 3 16443346447095114564
13965767 371 16879909634689763661
14289901 80 17895757438754812298
14957384 54 17531517715936968348
15209294 21 16950276343369258028
18186145 218 18266747874424124815
18219364 16 17703237316091186898
19765921 60 18196916809018396993
19862831 5 15267338517945497645
20645477 56 18187656794433759407
20645477 70 17560532707229428270
21524375 3 18267854009049811067
22079108 93 18341342093960053033
22112679 90 17023480753398766831
22907989 373 18126000709391447717
23402655 69 17274540906375938553
23493267 7 18409448107146843298
23557571 272 18337401537904835550
23559900 14 18339930312524800390
238 59 17418082230806697076
25 1 18059296452737944801
2748010 2 17916863663597642592
3082319 5 16701445785129873013
474 4 18341612577456290765
6049 1 18056479680204863608
633830 44 18054514604187377645
6442390 28 18263660489287622323
7097593 13 14274020953280580825
76465 3 8934997040781096804
7808743 9 18187650223297950540
81228 2 18116447006146331355
9981440 41 17629168719375205506

> <PUBCHEM_SHAPE_MULTIPOLES>
373.4
7.64
2.47
1.65
4.17
1.32
0.13
-5.62
0.18
-2.17
-0.23
0.13
0
1.03

> <PUBCHEM_SHAPE_SELFOVERLAP>
799.149

> <PUBCHEM_SHAPE_VOLUME>
205.6

> <PUBCHEM_COORDINATE_TYPE>
2
5
10

$$$$
