1235191
  -OEChem-11232022193D

 35 37  0     0  0  0  0  0  0999 V2000
    0.9322   -2.6293    0.0932 O   0  0  0  0  0  0  0  0  0  0  0  0
    2.2627    2.7312   -0.2843 O   0  0  0  0  0  0  0  0  0  0  0  0
    4.2438    0.7871   -0.2008 O   0  0  0  0  0  0  0  0  0  0  0  0
   -0.6483   -4.2750    0.2336 O   0  0  0  0  0  0  0  0  0  0  0  0
    0.2143   -0.3024   -0.0443 C   0  0  0  0  0  0  0  0  0  0  0  0
   -1.1879   -0.7430    0.0131 C   0  0  0  0  0  0  0  0  0  0  0  0
    1.2295   -1.2567   -0.0034 C   0  0  0  0  0  0  0  0  0  0  0  0
   -2.3638    0.1222   -0.0204 C   0  0  0  0  0  0  0  0  0  0  0  0
    0.5833    1.0459   -0.1384 C   0  0  0  0  0  0  0  0  0  0  0  0
    1.9326    1.4120   -0.1907 C   0  0  0  0  0  0  0  0  0  0  0  0
    2.5793   -0.9064   -0.0544 C   0  0  0  0  0  0  0  0  0  0  0  0
    2.9288    0.4371   -0.1491 C   0  0  0  0  0  0  0  0  0  0  0  0
   -1.4377   -2.0596    0.1039 C   0  0  0  0  0  0  0  0  0  0  0  0
   -0.3767   -3.0821    0.1503 C   0  0  0  0  0  0  0  0  0  0  0  0
   -2.9452    0.4523   -1.2414 C   0  0  0  0  0  0  0  0  0  0  0  0
   -2.8971    0.6113    1.1687 C   0  0  0  0  0  0  0  0  0  0  0  0
   -4.0688    1.2783   -1.2736 C   0  0  0  0  0  0  0  0  0  0  0  0
   -4.0208    1.4372    1.1367 C   0  0  0  0  0  0  0  0  0  0  0  0
   -4.6066    1.7706   -0.0845 C   0  0  0  0  0  0  0  0  0  0  0  0
    2.4476    3.4406    0.9386 C   0  0  0  0  0  0  0  0  0  0  0  0
    5.1990   -0.2712   -0.1529 C   0  0  0  0  0  0  0  0  0  0  0  0
   -0.1709    1.8287   -0.1740 H   0  0  0  0  0  0  0  0  0  0  0  0
    3.2973   -1.7182   -0.0167 H   0  0  0  0  0  0  0  0  0  0  0  0
   -2.4537   -2.4448    0.1494 H   0  0  0  0  0  0  0  0  0  0  0  0
   -2.5371    0.0774   -2.1769 H   0  0  0  0  0  0  0  0  0  0  0  0
   -2.4512    0.3614    2.1283 H   0  0  0  0  0  0  0  0  0  0  0  0
   -4.5248    1.5382   -2.2244 H   0  0  0  0  0  0  0  0  0  0  0  0
   -4.4394    1.8209    2.0625 H   0  0  0  0  0  0  0  0  0  0  0  0
   -5.4813    2.4138   -0.1094 H   0  0  0  0  0  0  0  0  0  0  0  0
    3.2604    2.9974    1.5227 H   0  0  0  0  0  0  0  0  0  0  0  0
    1.5225    3.4434    1.5239 H   0  0  0  0  0  0  0  0  0  0  0  0
    2.7126    4.4739    0.6989 H   0  0  0  0  0  0  0  0  0  0  0  0
    5.1101   -0.9346   -1.0200 H   0  0  0  0  0  0  0  0  0  0  0  0
    5.1499   -0.8162    0.7959 H   0  0  0  0  0  0  0  0  0  0  0  0
    6.1917    0.1882   -0.2046 H   0  0  0  0  0  0  0  0  0  0  0  0
  1  7  1  0  0  0  0
  1 14  1  0  0  0  0
  2 10  1  0  0  0  0
  2 20  1  0  0  0  0
  3 12  1  0  0  0  0
  3 21  1  0  0  0  0
  4 14  2  0  0  0  0
  5  6  1  0  0  0  0
  5  7  1  0  0  0  0
  5  9  2  0  0  0  0
  6  8  1  0  0  0  0
  6 13  2  0  0  0  0
  7 11  2  0  0  0  0
  8 15  2  0  0  0  0
  8 16  1  0  0  0  0
  9 10  1  0  0  0  0
  9 22  1  0  0  0  0
 10 12  2  0  0  0  0
 11 12  1  0  0  0  0
 11 23  1  0  0  0  0
 13 14  1  0  0  0  0
 13 24  1  0  0  0  0
 15 17  1  0  0  0  0
 15 25  1  0  0  0  0
 16 18  2  0  0  0  0
 16 26  1  0  0  0  0
 17 19  2  0  0  0  0
 17 27  1  0  0  0  0
 18 19  1  0  0  0  0
 18 28  1  0  0  0  0
 19 29  1  0  0  0  0
 20 30  1  0  0  0  0
 20 31  1  0  0  0  0
 20 32  1  0  0  0  0
 21 33  1  0  0  0  0
 21 34  1  0  0  0  0
 21 35  1  0  0  0  0
M  END
> <PUBCHEM_COMPOUND_CID>
1235191

> <PUBCHEM_CONFORMER_RMSD>
0.6

> <PUBCHEM_CONFORMER_DIVERSEORDER>
1
6
5
3
2
4

> <PUBCHEM_MMFF94_PARTIAL_CHARGES>
29
1 -0.23
10 0.08
11 -0.15
12 0.08
13 -0.14
14 0.71
15 -0.15
16 -0.15
17 -0.15
18 -0.15
19 -0.15
2 -0.36
20 0.28
21 0.28
22 0.15
23 0.15
24 0.15
25 0.15
26 0.15
27 0.15
28 0.15
29 0.15
3 -0.36
4 -0.57
5 0.03
6 -0.06
7 0.08
8 0.03
9 -0.15

> <PUBCHEM_EFFECTIVE_ROTOR_COUNT>
3

> <PUBCHEM_PHARMACOPHORE_FEATURES>
6
1 2 acceptor
1 3 acceptor
1 4 acceptor
6 1 5 6 7 13 14 rings
6 5 7 9 10 11 12 rings
6 8 15 16 17 18 19 rings

> <PUBCHEM_HEAVY_ATOM_COUNT>
21

> <PUBCHEM_ATOM_DEF_STEREO_COUNT>
0

> <PUBCHEM_ATOM_UDEF_STEREO_COUNT>
0

> <PUBCHEM_BOND_DEF_STEREO_COUNT>
0

> <PUBCHEM_BOND_UDEF_STEREO_COUNT>
0

> <PUBCHEM_ISOTOPIC_ATOM_COUNT>
0

> <PUBCHEM_COMPONENT_COUNT>
1

> <PUBCHEM_CACTVS_TAUTO_COUNT>
1

> <PUBCHEM_CONFORMER_ID>
0012D8F700000001

> <PUBCHEM_MMFF94_ENERGY>
91.2544

> <PUBCHEM_FEATURE_SELFOVERLAP>
30.478

> <PUBCHEM_SHAPE_FINGERPRINT>
10165383 225 18261969482773598613
10693767 8 17986099713014717007
10906281 52 18271824410421220740
10967382 1 18337954463568235078
1100329 8 18411702106163242440
11582403 64 16665376366595197029
11640471 11 17559123068977062337
11725454 13 16952224587947961551
12173636 292 18267021841998462253
12236239 1 17774437171280361125
12500047 106 18337106869099814860
12633257 1 18409440393427991624
12730499 353 18262521386703779645
12769317 202 18192697969807319693
12788726 201 17469028317076262530
13004483 165 17763741392105386739
13140716 1 18337955704861347608
13583140 156 16877933958328500649
138480 1 17761211012122513067
14178342 30 17904191873977109424
14223421 5 17763462116409705992
14466204 15 18266169527003034672
14790565 3 18337966580019805940
15099037 51 18410013221911370716
15309172 13 18408045091623342565
1601671 61 18335140856621203420
16945 1 18410292467246192534
1813 80 17194044393365827951
18186145 218 18341617001198499213
18219364 16 18335148578803505713
19784866 34 18339643334945449039
204376 136 18336267860039267903
20510252 161 17907858757786969651
20739085 24 18046644308281908568
21033648 29 18113887252534649301
21041028 32 17328590514475050179
21307412 95 17985854583032278182
21524375 3 18260832617857427467
21639500 275 18265324032947045621
22182937 141 18267871751311576833
2255824 54 18268709411942803439
2334 1 18049724310833924556
23402539 116 18202279174350459372
23558518 356 17973162022131391746
23559900 14 18271811263790123532
238 59 17756664669270387437
25 1 18337108973412308823
2748010 2 18264777729733060054
3091708 16 9193532923634189299
335352 9 18410012118331635662
34934 24 18408879638603765762
350125 39 18337399360694162963
3886686 26 17979035523290003434
404807 14 14685861579370257118
474 4 18340486673507435017
5104073 3 18263077864094117832
633830 44 18129390306387526733
7164475 11 17905888428760691718
7226269 152 18273494555509156192
74978 22 18339360889427494280
81228 2 17611748203331826547
8272917 22 18195529182357488927
84936 182 18272359859251003841
9981440 41 16767286972104988792

> <PUBCHEM_SHAPE_MULTIPOLES>
408.69
8.22
3.77
0.95
0.22
2.3
0.01
-5.51
0.59
1.07
-0.77
-0.9
-0.38
0.27

> <PUBCHEM_SHAPE_SELFOVERLAP>
897.85

> <PUBCHEM_SHAPE_VOLUME>
221.6

> <PUBCHEM_COORDINATE_TYPE>
2
5
10

$$$$
