93285
  -OEChem-11232022133D

 31 31  0     1  0  0  0  0  0999 V2000
   -0.6951   -0.4241    0.6224 O   0  0  0  0  0  0  0  0  0  0  0  0
   -0.2840    2.6994   -0.7278 O   0  0  0  0  0  0  0  0  0  0  0  0
   -3.9684   -0.6726   -1.0562 N   0  0  0  0  0  0  0  0  0  0  0  0
   -3.0386   -0.5933    0.0692 C   0  0  1  0  0  0  0  0  0  0  0  0
   -1.6122   -0.4571   -0.4644 C   0  0  0  0  0  0  0  0  0  0  0  0
    0.6286   -0.2625    0.3081 C   0  0  0  0  0  0  0  0  0  0  0  0
    1.1676    1.0179    0.2226 C   0  0  0  0  0  0  0  0  0  0  0  0
    1.4259   -1.3799    0.0770 C   0  0  0  0  0  0  0  0  0  0  0  0
   -3.4176    0.5733    0.9820 C   0  0  0  0  0  0  0  0  0  0  0  0
    2.5154    1.1824   -0.0966 C   0  0  0  0  0  0  0  0  0  0  0  0
    2.7738   -1.2153   -0.2421 C   0  0  0  0  0  0  0  0  0  0  0  0
    0.3246    2.2255    0.4690 C   0  0  0  0  0  0  0  0  0  0  0  0
    3.3185    0.0658   -0.3290 C   0  0  0  0  0  0  0  0  0  0  0  0
    0.8615   -2.7595    0.1658 C   0  0  0  0  0  0  0  0  0  0  0  0
   -3.1115   -1.5177    0.6544 H   0  0  0  0  0  0  0  0  0  0  0  0
   -1.3783   -1.3116   -1.1115 H   0  0  0  0  0  0  0  0  0  0  0  0
   -1.5165    0.4529   -1.0678 H   0  0  0  0  0  0  0  0  0  0  0  0
   -4.4481    0.4716    1.3404 H   0  0  0  0  0  0  0  0  0  0  0  0
   -3.3340    1.5336    0.4608 H   0  0  0  0  0  0  0  0  0  0  0  0
   -2.7680    0.6105    1.8628 H   0  0  0  0  0  0  0  0  0  0  0  0
    2.9524    2.1748   -0.1699 H   0  0  0  0  0  0  0  0  0  0  0  0
    3.4115   -2.0755   -0.4280 H   0  0  0  0  0  0  0  0  0  0  0  0
   -0.4617    2.0328    1.2062 H   0  0  0  0  0  0  0  0  0  0  0  0
    0.9324    3.0396    0.8804 H   0  0  0  0  0  0  0  0  0  0  0  0
    4.3677    0.1941   -0.5787 H   0  0  0  0  0  0  0  0  0  0  0  0
    0.1661   -2.8511    1.0068 H   0  0  0  0  0  0  0  0  0  0  0  0
    0.3398   -3.0164   -0.7612 H   0  0  0  0  0  0  0  0  0  0  0  0
    1.6500   -3.5026    0.3292 H   0  0  0  0  0  0  0  0  0  0  0  0
   -3.9278    0.1891   -1.5998 H   0  0  0  0  0  0  0  0  0  0  0  0
   -4.9239   -0.7397   -0.7074 H   0  0  0  0  0  0  0  0  0  0  0  0
    0.3011    2.4960   -1.4769 H   0  0  0  0  0  0  0  0  0  0  0  0
  1  5  1  0  0  0  0
  1  6  1  0  0  0  0
  2 12  1  0  0  0  0
  2 31  1  0  0  0  0
  3  4  1  0  0  0  0
  3 29  1  0  0  0  0
  3 30  1  0  0  0  0
  4  5  1  0  0  0  0
  4  9  1  0  0  0  0
  4 15  1  0  0  0  0
  5 16  1  0  0  0  0
  5 17  1  0  0  0  0
  6  7  1  0  0  0  0
  6  8  2  0  0  0  0
  7 10  2  0  0  0  0
  7 12  1  0  0  0  0
  8 11  1  0  0  0  0
  8 14  1  0  0  0  0
  9 18  1  0  0  0  0
  9 19  1  0  0  0  0
  9 20  1  0  0  0  0
 10 13  1  0  0  0  0
 10 21  1  0  0  0  0
 11 13  2  0  0  0  0
 11 22  1  0  0  0  0
 12 23  1  0  0  0  0
 12 24  1  0  0  0  0
 13 25  1  0  0  0  0
 14 26  1  0  0  0  0
 14 27  1  0  0  0  0
 14 28  1  0  0  0  0
M  END
> <PUBCHEM_COMPOUND_CID>
93285

> <PUBCHEM_CONFORMER_RMSD>
0.6

> <PUBCHEM_CONFORMER_DIVERSEORDER>
1
9
17
23
20
24
11
16
22
14
19
21
8
15
18
10
13
3
6
12
2
4
7
5

> <PUBCHEM_MMFF94_PARTIAL_CHARGES>
19
1 -0.36
10 -0.15
11 -0.15
12 0.42
13 -0.15
14 0.14
2 -0.68
21 0.15
22 0.15
25 0.15
29 0.36
3 -0.99
30 0.36
31 0.4
4 0.27
5 0.28
6 0.08
7 -0.14
8 -0.14

> <PUBCHEM_EFFECTIVE_ROTOR_COUNT>
4

> <PUBCHEM_PHARMACOPHORE_FEATURES>
6
1 1 acceptor
1 2 acceptor
1 2 donor
1 3 cation
1 3 donor
6 6 7 8 10 11 13 rings

> <PUBCHEM_HEAVY_ATOM_COUNT>
14

> <PUBCHEM_ATOM_DEF_STEREO_COUNT>
0

> <PUBCHEM_ATOM_UDEF_STEREO_COUNT>
1

> <PUBCHEM_BOND_DEF_STEREO_COUNT>
0

> <PUBCHEM_BOND_UDEF_STEREO_COUNT>
0

> <PUBCHEM_ISOTOPIC_ATOM_COUNT>
0

> <PUBCHEM_COMPONENT_COUNT>
1

> <PUBCHEM_CACTVS_TAUTO_COUNT>
1

> <PUBCHEM_CONFORMER_ID>
00016C6500000001

> <PUBCHEM_MMFF94_ENERGY>
35.5719

> <PUBCHEM_FEATURE_SELFOVERLAP>
30.446

> <PUBCHEM_SHAPE_FINGERPRINT>
10219947 1 18408887364474230842
10967382 1 18410576210139910226
10980938 120 18410856555403013483
11206711 2 18264504883883633044
11471102 20 18409727361240300719
11578080 2 17557953235480769905
116883 192 17838332982592834703
12654215 9 18334284370868905948
14144814 61 18342459248785914515
14251717 144 18411695517245625295
14993402 34 18273216425641783118
15757776 16 18413384332719790054
161256 15 18412540981742491600
16945 1 18335140856457569138
17844478 74 17895203177272414525
18186145 218 18409454695262808070
193761 8 17905609900268429602
20201158 50 18333731308009470683
20606313 2 18409725196545219478
20645477 70 18412539878141923983
21501502 16 18120094987820627344
21634736 98 17841419638144761639
22289505 5 18262781992286875509
23402539 116 18342172263556034702
23402655 69 18341610400155473245
23559900 14 18126019393607597836
23598291 2 18130792231147719167
25 1 18335143102345877706
2748010 2 18123203556585504226
3060560 45 18340195401362351311
528886 8 18411418444763257002
589210 1 17904764371336504182
63268167 104 18412546535024305817
77492 1 17846787307966675403
7832392 63 18271529702312791033
84936 182 17772752912023212905

> <PUBCHEM_SHAPE_MULTIPOLES>
271.39
5.56
2.49
0.84
4.32
0.35
0.03
-0.85
0.64
-0.9
0.05
0.49
0.07
-0.3

> <PUBCHEM_SHAPE_SELFOVERLAP>
549.344

> <PUBCHEM_SHAPE_VOLUME>
160.3

> <PUBCHEM_COORDINATE_TYPE>
2
5
10

$$$$
