90659511
  -OEChem-11232022152D

116116  0     0  0  0  0  0  0999 V2000
    9.7466   17.1580    0.0000 O   0  0  0  0  0  0  0  0  0  0  0  0
   11.4787   17.1580    0.0000 O   0  0  0  0  0  0  0  0  0  0  0  0
   11.4787   14.1580    0.0000 O   0  0  0  0  0  0  0  0  0  0  0  0
    9.7466   14.1580    0.0000 O   0  0  0  0  0  0  0  0  0  0  0  0
    9.7466    2.1200    0.0000 O   0  0  0  0  0  0  0  0  0  0  0  0
   13.2107    4.1200    0.0000 O   0  0  0  0  0  0  0  0  0  0  0  0
   10.6127    3.6200    0.0000 O   0  0  0  0  0  0  0  0  0  0  0  0
   11.4787    4.1200    0.0000 O   0  0  0  0  0  0  0  0  0  0  0  0
   10.6127   21.1221    0.0000 N   0  0  0  0  0  0  0  0  0  0  0  0
   10.6127   10.1939    0.0000 N   0  0  0  0  0  0  0  0  0  0  0  0
    0.6106    8.4245    0.0000 N   0  0  0  0  0  0  0  0  0  0  0  0
    3.2087   12.9245    0.0000 N   0  0  0  0  0  0  0  0  0  0  0  0
   20.6147   11.5795    0.0000 N   0  0  0  0  0  0  0  0  0  0  0  0
   10.6127   15.6580    0.0000 C   0  0  0  0  0  0  0  0  0  0  0  0
    9.7466   16.1580    0.0000 C   0  0  0  0  0  0  0  0  0  0  0  0
   11.4787   16.1580    0.0000 C   0  0  0  0  0  0  0  0  0  0  0  0
   11.4787   15.1580    0.0000 C   0  0  0  0  0  0  0  0  0  0  0  0
    9.7466   15.1580    0.0000 C   0  0  0  0  0  0  0  0  0  0  0  0
   10.6127   17.6580    0.0000 C   0  0  0  0  0  0  0  0  0  0  0  0
   10.6127   13.6580    0.0000 C   0  0  0  0  0  0  0  0  0  0  0  0
   11.1127   18.5240    0.0000 C   0  0  0  0  0  0  0  0  0  0  0  0
   10.1127   12.7919    0.0000 C   0  0  0  0  0  0  0  0  0  0  0  0
   10.6127   19.3900    0.0000 C   0  0  0  0  0  0  0  0  0  0  0  0
   10.6127   11.9259    0.0000 C   0  0  0  0  0  0  0  0  0  0  0  0
   11.1127   20.2561    0.0000 C   0  0  0  0  0  0  0  0  0  0  0  0
   10.1127   11.0599    0.0000 C   0  0  0  0  0  0  0  0  0  0  0  0
    8.0146    2.1200    0.0000 C   0  0  0  0  0  0  0  0  0  0  0  0
   14.0768    5.6200    0.0000 C   0  0  0  0  0  0  0  0  0  0  0  0
    7.1486    2.6200    0.0000 C   0  0  0  0  0  0  0  0  0  0  0  0
   14.0768    6.6200    0.0000 C   0  0  0  0  0  0  0  0  0  0  0  0
    8.8806    2.6200    0.0000 C   0  0  0  0  0  0  0  0  0  0  0  0
   13.2107    5.1200    0.0000 C   0  0  0  0  0  0  0  0  0  0  0  0
   11.4787    2.1200    0.0000 C   0  0  0  0  0  0  0  0  0  0  0  0
   12.3447    2.6200    0.0000 C   0  0  0  0  0  0  0  0  0  0  0  0
    6.2825    2.1200    0.0000 C   0  0  0  0  0  0  0  0  0  0  0  0
   14.9428    7.1200    0.0000 C   0  0  0  0  0  0  0  0  0  0  0  0
   10.6127    2.6200    0.0000 C   0  0  0  0  0  0  0  0  0  0  0  0
   12.3447    3.6200    0.0000 C   0  0  0  0  0  0  0  0  0  0  0  0
   11.4787    1.1200    0.0000 C   0  0  0  0  0  0  0  0  0  0  0  0
   13.2107    2.1200    0.0000 C   0  0  0  0  0  0  0  0  0  0  0  0
    1.4766    9.9245    0.0000 C   0  0  0  0  0  0  0  0  0  0  0  0
    2.3426   11.4245    0.0000 C   0  0  0  0  0  0  0  0  0  0  0  0
    1.4766   10.9245    0.0000 C   0  0  0  0  0  0  0  0  0  0  0  0
   12.3447    0.6200    0.0000 C   0  0  0  0  0  0  0  0  0  0  0  0
   13.2107    1.1200    0.0000 C   0  0  0  0  0  0  0  0  0  0  0  0
    0.6106    9.4245    0.0000 C   0  0  0  0  0  0  0  0  0  0  0  0
    2.3426   12.4245    0.0000 C   0  0  0  0  0  0  0  0  0  0  0  0
    2.3426    9.4245    0.0000 C   0  0  0  0  0  0  0  0  0  0  0  0
    3.2087   10.9245    0.0000 C   0  0  0  0  0  0  0  0  0  0  0  0
    3.2087    9.9245    0.0000 C   0  0  0  0  0  0  0  0  0  0  0  0
   18.8827   10.5795    0.0000 C   0  0  0  0  0  0  0  0  0  0  0  0
   18.0167   11.0795    0.0000 C   0  0  0  0  0  0  0  0  0  0  0  0
   19.7487   11.0795    0.0000 C   0  0  0  0  0  0  0  0  0  0  0  0
    9.1360   16.2656    0.0000 H   0  0  0  0  0  0  0  0  0  0  0  0
    9.5346   15.5754    0.0000 H   0  0  0  0  0  0  0  0  0  0  0  0
   11.6907   15.5754    0.0000 H   0  0  0  0  0  0  0  0  0  0  0  0
   12.0893   16.2656    0.0000 H   0  0  0  0  0  0  0  0  0  0  0  0
   12.0893   15.0503    0.0000 H   0  0  0  0  0  0  0  0  0  0  0  0
   11.6907   15.7406    0.0000 H   0  0  0  0  0  0  0  0  0  0  0  0
    9.5346   15.7406    0.0000 H   0  0  0  0  0  0  0  0  0  0  0  0
    9.1360   15.0503    0.0000 H   0  0  0  0  0  0  0  0  0  0  0  0
   10.3027   18.1949    0.0000 H   0  0  0  0  0  0  0  0  0  0  0  0
   10.9227   13.1210    0.0000 H   0  0  0  0  0  0  0  0  0  0  0  0
   11.5876   18.1255    0.0000 H   0  0  0  0  0  0  0  0  0  0  0  0
   11.5876   18.9225    0.0000 H   0  0  0  0  0  0  0  0  0  0  0  0
    9.6377   13.1905    0.0000 H   0  0  0  0  0  0  0  0  0  0  0  0
    9.6377   12.3934    0.0000 H   0  0  0  0  0  0  0  0  0  0  0  0
   10.1377   19.7886    0.0000 H   0  0  0  0  0  0  0  0  0  0  0  0
   10.1377   18.9915    0.0000 H   0  0  0  0  0  0  0  0  0  0  0  0
   11.0876   11.5274    0.0000 H   0  0  0  0  0  0  0  0  0  0  0  0
   11.0876   12.3245    0.0000 H   0  0  0  0  0  0  0  0  0  0  0  0
   11.5876   19.8575    0.0000 H   0  0  0  0  0  0  0  0  0  0  0  0
   11.5876   20.6546    0.0000 H   0  0  0  0  0  0  0  0  0  0  0  0
    9.6377   11.4584    0.0000 H   0  0  0  0  0  0  0  0  0  0  0  0
    9.6377   10.6614    0.0000 H   0  0  0  0  0  0  0  0  0  0  0  0
   10.9227   21.6590    0.0000 H   0  0  0  0  0  0  0  0  0  0  0  0
    9.9926   21.1221    0.0000 H   0  0  0  0  0  0  0  0  0  0  0  0
   10.3027    9.6569    0.0000 H   0  0  0  0  0  0  0  0  0  0  0  0
   11.2327   10.1939    0.0000 H   0  0  0  0  0  0  0  0  0  0  0  0
    7.6160    1.6450    0.0000 H   0  0  0  0  0  0  0  0  0  0  0  0
    8.4131    1.6450    0.0000 H   0  0  0  0  0  0  0  0  0  0  0  0
   14.2888    5.0374    0.0000 H   0  0  0  0  0  0  0  0  0  0  0  0
   14.6873    5.7277    0.0000 H   0  0  0  0  0  0  0  0  0  0  0  0
    7.5471    3.0950    0.0000 H   0  0  0  0  0  0  0  0  0  0  0  0
    6.7500    3.0950    0.0000 H   0  0  0  0  0  0  0  0  0  0  0  0
   13.8647    7.2026    0.0000 H   0  0  0  0  0  0  0  0  0  0  0  0
   13.4662    6.5123    0.0000 H   0  0  0  0  0  0  0  0  0  0  0  0
    9.2791    3.0950    0.0000 H   0  0  0  0  0  0  0  0  0  0  0  0
    8.4821    3.0950    0.0000 H   0  0  0  0  0  0  0  0  0  0  0  0
   12.9987    5.7026    0.0000 H   0  0  0  0  0  0  0  0  0  0  0  0
   12.6002    5.0123    0.0000 H   0  0  0  0  0  0  0  0  0  0  0  0
    5.9725    2.6569    0.0000 H   0  0  0  0  0  0  0  0  0  0  0  0
    5.7456    1.8100    0.0000 H   0  0  0  0  0  0  0  0  0  0  0  0
    6.5925    1.5831    0.0000 H   0  0  0  0  0  0  0  0  0  0  0  0
   15.2528    6.5831    0.0000 H   0  0  0  0  0  0  0  0  0  0  0  0
   15.4797    7.4300    0.0000 H   0  0  0  0  0  0  0  0  0  0  0  0
   14.6328    7.6569    0.0000 H   0  0  0  0  0  0  0  0  0  0  0  0
   10.9417    0.8100    0.0000 H   0  0  0  0  0  0  0  0  0  0  0  0
   13.7477    2.4300    0.0000 H   0  0  0  0  0  0  0  0  0  0  0  0
    0.9397   11.2345    0.0000 H   0  0  0  0  0  0  0  0  0  0  0  0
   12.3447    0.0000    0.0000 H   0  0  0  0  0  0  0  0  0  0  0  0
   13.7477    0.8100    0.0000 H   0  0  0  0  0  0  0  0  0  0  0  0
    0.3985   10.0071    0.0000 H   0  0  0  0  0  0  0  0  0  0  0  0
    0.0000    9.3168    0.0000 H   0  0  0  0  0  0  0  0  0  0  0  0
    2.1306   13.0071    0.0000 H   0  0  0  0  0  0  0  0  0  0  0  0
    1.7320   12.3168    0.0000 H   0  0  0  0  0  0  0  0  0  0  0  0
    2.3426    8.8045    0.0000 H   0  0  0  0  0  0  0  0  0  0  0  0
    3.7456   11.2345    0.0000 H   0  0  0  0  0  0  0  0  0  0  0  0
    3.7456    9.6145    0.0000 H   0  0  0  0  0  0  0  0  0  0  0  0
    0.0736    8.1145    0.0000 H   0  0  0  0  0  0  0  0  0  0  0  0
    1.1475    8.1145    0.0000 H   0  0  0  0  0  0  0  0  0  0  0  0
    3.2087   13.5445    0.0000 H   0  0  0  0  0  0  0  0  0  0  0  0
    3.7456   12.6145    0.0000 H   0  0  0  0  0  0  0  0  0  0  0  0
   18.8827    9.9595    0.0000 H   0  0  0  0  0  0  0  0  0  0  0  0
   18.0167   11.6995    0.0000 H   0  0  0  0  0  0  0  0  0  0  0  0
   17.4797   10.7695    0.0000 H   0  0  0  0  0  0  0  0  0  0  0  0
  1 15  1  0  0  0  0
  1 19  1  0  0  0  0
  2 16  1  0  0  0  0
  2 19  1  0  0  0  0
  3 17  1  0  0  0  0
  3 20  1  0  0  0  0
  4 18  1  0  0  0  0
  4 20  1  0  0  0  0
  5 31  1  0  0  0  0
  5 37  1  0  0  0  0
  6 32  1  0  0  0  0
  6 38  1  0  0  0  0
  7 37  2  0  0  0  0
  8 38  2  0  0  0  0
  9 25  1  0  0  0  0
  9 76  1  0  0  0  0
  9 77  1  0  0  0  0
 10 26  1  0  0  0  0
 10 78  1  0  0  0  0
 10 79  1  0  0  0  0
 11 46  1  0  0  0  0
 11110  1  0  0  0  0
 11111  1  0  0  0  0
 12 47  1  0  0  0  0
 12112  1  0  0  0  0
 12113  1  0  0  0  0
 13 53  3  0  0  0  0
 14 15  1  0  0  0  0
 14 16  1  0  0  0  0
 14 17  1  0  0  0  0
 14 18  1  0  0  0  0
 15 54  1  0  0  0  0
 15 55  1  0  0  0  0
 16 56  1  0  0  0  0
 16 57  1  0  0  0  0
 17 58  1  0  0  0  0
 17 59  1  0  0  0  0
 18 60  1  0  0  0  0
 18 61  1  0  0  0  0
 19 21  1  0  0  0  0
 19 62  1  0  0  0  0
 20 22  1  0  0  0  0
 20 63  1  0  0  0  0
 21 23  1  0  0  0  0
 21 64  1  0  0  0  0
 21 65  1  0  0  0  0
 22 24  1  0  0  0  0
 22 66  1  0  0  0  0
 22 67  1  0  0  0  0
 23 25  1  0  0  0  0
 23 68  1  0  0  0  0
 23 69  1  0  0  0  0
 24 26  1  0  0  0  0
 24 70  1  0  0  0  0
 24 71  1  0  0  0  0
 25 72  1  0  0  0  0
 25 73  1  0  0  0  0
 26 74  1  0  0  0  0
 26 75  1  0  0  0  0
 27 29  1  0  0  0  0
 27 31  1  0  0  0  0
 27 80  1  0  0  0  0
 27 81  1  0  0  0  0
 28 30  1  0  0  0  0
 28 32  1  0  0  0  0
 28 82  1  0  0  0  0
 28 83  1  0  0  0  0
 29 35  1  0  0  0  0
 29 84  1  0  0  0  0
 29 85  1  0  0  0  0
 30 36  1  0  0  0  0
 30 86  1  0  0  0  0
 30 87  1  0  0  0  0
 31 88  1  0  0  0  0
 31 89  1  0  0  0  0
 32 90  1  0  0  0  0
 32 91  1  0  0  0  0
 33 34  1  0  0  0  0
 33 37  1  0  0  0  0
 33 39  2  0  0  0  0
 34 38  1  0  0  0  0
 34 40  2  0  0  0  0
 35 92  1  0  0  0  0
 35 93  1  0  0  0  0
 35 94  1  0  0  0  0
 36 95  1  0  0  0  0
 36 96  1  0  0  0  0
 36 97  1  0  0  0  0
 39 44  1  0  0  0  0
 39 98  1  0  0  0  0
 40 45  1  0  0  0  0
 40 99  1  0  0  0  0
 41 43  2  0  0  0  0
 41 46  1  0  0  0  0
 41 48  1  0  0  0  0
 42 43  1  0  0  0  0
 42 47  1  0  0  0  0
 42 49  2  0  0  0  0
 43100  1  0  0  0  0
 44 45  2  0  0  0  0
 44101  1  0  0  0  0
 45102  1  0  0  0  0
 46103  1  0  0  0  0
 46104  1  0  0  0  0
 47105  1  0  0  0  0
 47106  1  0  0  0  0
 48 50  2  0  0  0  0
 48107  1  0  0  0  0
 49 50  1  0  0  0  0
 49108  1  0  0  0  0
 50109  1  0  0  0  0
 51 52  2  0  0  0  0
 51 53  1  0  0  0  0
 51114  1  0  0  0  0
 52115  1  0  0  0  0
 52116  1  0  0  0  0
M  END
> <PUBCHEM_COMPOUND_CID>
90659511

> <PUBCHEM_COMPOUND_CANONICALIZED>
1

> <PUBCHEM_CACTVS_COMPLEXITY>
629

> <PUBCHEM_CACTVS_HBOND_ACCEPTOR>
13

> <PUBCHEM_CACTVS_HBOND_DONOR>
4

> <PUBCHEM_CACTVS_ROTATABLE_BOND>
18

> <PUBCHEM_CACTVS_SUBSKEYS>
AAADcfB/vAAAAAAAAAAAAAAAAAAAAAAAAAA0aIEAAAAAAAABQAAAHgAQAAAADgDxmAcyCIBABACYBiDSCACiAAAkAAAIiIEADMgYJjKAtRmiMQBl0AEMqYf7yOCOgAACAAAQAAAAAAQAACAAAAAAAAAAAA==

> <PUBCHEM_IUPAC_OPENEYE_NAME>
[3-(aminomethyl)phenyl]methanamine;3-[3-(3-aminopropyl)-2,4,8,10-tetraoxaspiro[5.5]undecan-9-yl]propan-1-amine;dibutyl benzene-1,2-dicarboxylate;prop-2-enenitrile

> <PUBCHEM_IUPAC_CAS_NAME>
[3-(aminomethyl)phenyl]methanamine;3-[3-(3-aminopropyl)-2,4,8,10-tetraoxaspiro[5.5]undecan-9-yl]-1-propanamine;benzene-1,2-dicarboxylic acid dibutyl ester;2-propenenitrile

> <PUBCHEM_IUPAC_NAME_MARKUP>
[3-(aminomethyl)phenyl]methanamine;3-[3-(3-aminopropyl)-2,4,8,10-tetraoxaspiro[5.5]undecan-9-yl]propan-1-amine;dibutyl benzene-1,2-dicarboxylate;prop-2-enenitrile

> <PUBCHEM_IUPAC_NAME>
[3-(aminomethyl)phenyl]methanamine;3-[3-(3-aminopropyl)-2,4,8,10-tetraoxaspiro[5.5]undecan-9-yl]propan-1-amine;dibutyl benzene-1,2-dicarboxylate;prop-2-enenitrile

> <PUBCHEM_IUPAC_SYSTEMATIC_NAME>
[3-(aminomethyl)phenyl]methanamine;3-[3-(3-azanylpropyl)-2,4,8,10-tetraoxaspiro[5.5]undecan-9-yl]propan-1-amine;dibutyl benzene-1,2-dicarboxylate;prop-2-enenitrile

> <PUBCHEM_IUPAC_TRADITIONAL_NAME>
acrylonitrile;[3-(aminomethyl)benzyl]amine;3-[3-(3-aminopropyl)-2,4,8,10-tetraoxaspiro[5.5]undecan-9-yl]propylamine;benzene-1,2-dicarboxylic acid dibutyl ester

> <PUBCHEM_IUPAC_INCHI>
InChI=1S/C16H22O4.C13H26N2O4.C8H12N2.C3H3N/c1-3-5-11-19-15(17)13-9-7-8-10-14(13)16(18)20-12-6-4-2;14-5-1-3-11-16-7-13(8-17-11)9-18-12(19-10-13)4-2-6-15;9-5-7-2-1-3-8(4-7)6-10;1-2-3-4/h7-10H,3-6,11-12H2,1-2H3;11-12H,1-10,14-15H2;1-4H,5-6,9-10H2;2H,1H2

> <PUBCHEM_IUPAC_INCHIKEY>
SZNALVABDDXHMZ-UHFFFAOYSA-N

> <PUBCHEM_EXACT_MASS>
741.467664

> <PUBCHEM_MOLECULAR_FORMULA>
C40H63N5O8

> <PUBCHEM_MOLECULAR_WEIGHT>
742

> <PUBCHEM_OPENEYE_CAN_SMILES>
CCCCOC(=O)C1=CC=CC=C1C(=O)OCCCC.C=CC#N.C1C2(COC(O1)CCCN)COC(OC2)CCCN.C1=CC(=CC(=C1)CN)CN

> <PUBCHEM_OPENEYE_ISO_SMILES>
CCCCOC(=O)C1=CC=CC=C1C(=O)OCCCC.C=CC#N.C1C2(COC(O1)CCCN)COC(OC2)CCCN.C1=CC(=CC(=C1)CN)CN

> <PUBCHEM_CACTVS_TPSA>
217

> <PUBCHEM_MONOISOTOPIC_WEIGHT>
741.467664

> <PUBCHEM_TOTAL_CHARGE>
0

> <PUBCHEM_HEAVY_ATOM_COUNT>
53

> <PUBCHEM_ATOM_DEF_STEREO_COUNT>
0

> <PUBCHEM_ATOM_UDEF_STEREO_COUNT>
0

> <PUBCHEM_BOND_DEF_STEREO_COUNT>
0

> <PUBCHEM_BOND_UDEF_STEREO_COUNT>
0

> <PUBCHEM_ISOTOPIC_ATOM_COUNT>
0

> <PUBCHEM_COMPONENT_COUNT>
4

> <PUBCHEM_CACTVS_TAUTO_COUNT>
-1

> <PUBCHEM_COORDINATE_TYPE>
1
5
255

> <PUBCHEM_BONDANNOTATIONS>
33  34  8
33  39  8
34  40  8
39  44  8
40  45  8
41  43  8
41  48  8
42  43  8
42  49  8
44  45  8
48  50  8
49  50  8

$$$$
