5384417
  -OEChem-08302003233D

 80 82  0     1  0  0  0  0  0999 V2000
   -5.8417   -3.5378    1.3378 O   0  0  0  0  0  0  0  0  0  0  0  0
   -6.0531   -3.2674   -0.9075 O   0  0  0  0  0  0  0  0  0  0  0  0
    8.7974    0.7815   -1.5990 O   0  0  0  0  0  0  0  0  0  0  0  0
    6.9578    1.6647   -0.6028 O   0  0  0  0  0  0  0  0  0  0  0  0
   -0.1555    0.8214    0.9322 C   0  0  2  0  0  0  0  0  0  0  0  0
    0.5550   -0.1753   -0.0487 C   0  0  1  0  0  0  0  0  0  0  0  0
   -1.5074    1.2849    0.2984 C   0  0  1  0  0  0  0  0  0  0  0  0
    1.9571   -0.3055    0.5969 C   0  0  2  0  0  0  0  0  0  0  0  0
    0.9255    1.9043    1.0909 C   0  0  0  0  0  0  0  0  0  0  0  0
    2.2633    1.1320    1.0871 C   0  0  0  0  0  0  0  0  0  0  0  0
   -0.2882   -1.4580   -0.1016 C   0  0  0  0  0  0  0  0  0  0  0  0
   -2.3189    0.0861   -0.2494 C   0  0  0  0  0  0  0  0  0  0  0  0
   -3.7541    0.4006   -0.7509 C   0  0  2  0  0  0  0  0  0  0  0  0
   -2.3381    2.1512    1.2603 C   0  0  0  0  0  0  0  0  0  0  0  0
   -0.4109    0.2192    2.3556 C   0  0  0  0  0  0  0  0  0  0  0  0
    3.0726   -0.8790   -0.2697 C   0  0  1  0  0  0  0  0  0  0  0  0
    0.7103    0.3654   -1.5072 C   0  0  0  0  0  0  0  0  0  0  0  0
   -1.7462   -1.1383   -0.3675 C   0  0  0  0  0  0  0  0  0  0  0  0
   -4.4937    1.3398    0.2647 C   0  0  1  0  0  0  0  0  0  0  0  0
   -3.6651    2.5739    0.6481 C   0  0  0  0  0  0  0  0  0  0  0  0
   -4.6162   -0.8766   -0.9460 C   0  0  0  0  0  0  0  0  0  0  0  0
    4.4208   -0.9631    0.4741 C   0  0  0  0  0  0  0  0  0  0  0  0
   -3.6157    1.0617   -2.1454 C   0  0  0  0  0  0  0  0  0  0  0  0
    2.6792   -2.2722   -0.7719 C   0  0  0  0  0  0  0  0  0  0  0  0
   -5.8513    1.7997   -0.1921 C   0  0  0  0  0  0  0  0  0  0  0  0
   -4.7577   -1.6571    0.3411 C   0  0  0  0  0  0  0  0  0  0  0  0
    5.6246   -1.0920   -0.4637 C   0  0  0  0  0  0  0  0  0  0  0  0
   -5.8918    3.0962   -0.9454 C   0  0  0  0  0  0  0  0  0  0  0  0
   -6.9621    1.0914    0.0603 C   0  0  0  0  0  0  0  0  0  0  0  0
   -5.6187   -2.8840    0.1712 C   0  0  0  0  0  0  0  0  0  0  0  0
    6.9080   -1.1993    0.3148 C   0  0  0  0  0  0  0  0  0  0  0  0
    7.9570   -0.3569    0.2660 C   0  0  0  0  0  0  0  0  0  0  0  0
    9.2376   -0.5130    1.0315 C   0  0  0  0  0  0  0  0  0  0  0  0
    7.8201    0.8017   -0.6619 C   0  0  0  0  0  0  0  0  0  0  0  0
   -1.2776    1.9285   -0.5614 H   0  0  0  0  0  0  0  0  0  0  0  0
    1.8881   -0.9542    1.4797 H   0  0  0  0  0  0  0  0  0  0  0  0
    0.9044    2.6111    0.2531 H   0  0  0  0  0  0  0  0  0  0  0  0
    0.8124    2.4977    2.0045 H   0  0  0  0  0  0  0  0  0  0  0  0
    2.6886    1.1039    2.0970 H   0  0  0  0  0  0  0  0  0  0  0  0
    2.9803    1.6524    0.4419 H   0  0  0  0  0  0  0  0  0  0  0  0
    0.0362   -2.1184   -0.9094 H   0  0  0  0  0  0  0  0  0  0  0  0
   -0.2127   -2.0390    0.8243 H   0  0  0  0  0  0  0  0  0  0  0  0
   -2.5638    1.6126    2.1874 H   0  0  0  0  0  0  0  0  0  0  0  0
   -1.7690    3.0455    1.5407 H   0  0  0  0  0  0  0  0  0  0  0  0
   -0.6773    1.0060    3.0708 H   0  0  0  0  0  0  0  0  0  0  0  0
   -1.2257   -0.5114    2.3588 H   0  0  0  0  0  0  0  0  0  0  0  0
    0.4642   -0.2742    2.7849 H   0  0  0  0  0  0  0  0  0  0  0  0
    3.2320   -0.2319   -1.1408 H   0  0  0  0  0  0  0  0  0  0  0  0
    1.3264    1.2691   -1.5506 H   0  0  0  0  0  0  0  0  0  0  0  0
    1.1687   -0.3671   -2.1761 H   0  0  0  0  0  0  0  0  0  0  0  0
   -0.2459    0.6153   -1.9749 H   0  0  0  0  0  0  0  0  0  0  0  0
   -2.2852   -1.9771   -0.7941 H   0  0  0  0  0  0  0  0  0  0  0  0
   -4.6242    0.8080    1.2153 H   0  0  0  0  0  0  0  0  0  0  0  0
   -4.2028    3.1825    1.3873 H   0  0  0  0  0  0  0  0  0  0  0  0
   -3.4490    3.2242   -0.2068 H   0  0  0  0  0  0  0  0  0  0  0  0
   -5.6017   -0.6372   -1.3612 H   0  0  0  0  0  0  0  0  0  0  0  0
   -4.1703   -1.5191   -1.7182 H   0  0  0  0  0  0  0  0  0  0  0  0
    4.3993   -1.8025    1.1820 H   0  0  0  0  0  0  0  0  0  0  0  0
    4.5736   -0.0614    1.0788 H   0  0  0  0  0  0  0  0  0  0  0  0
   -4.5848    1.1842   -2.6399 H   0  0  0  0  0  0  0  0  0  0  0  0
   -3.1206    2.0364   -2.1050 H   0  0  0  0  0  0  0  0  0  0  0  0
   -3.0126    0.4316   -2.8120 H   0  0  0  0  0  0  0  0  0  0  0  0
    2.2550   -2.8870    0.0291 H   0  0  0  0  0  0  0  0  0  0  0  0
    3.5430   -2.8192   -1.1620 H   0  0  0  0  0  0  0  0  0  0  0  0
    1.9771   -2.2338   -1.6050 H   0  0  0  0  0  0  0  0  0  0  0  0
   -3.8106   -2.0127    0.7495 H   0  0  0  0  0  0  0  0  0  0  0  0
   -5.2469   -1.0801    1.1270 H   0  0  0  0  0  0  0  0  0  0  0  0
    5.5415   -2.0087   -1.0581 H   0  0  0  0  0  0  0  0  0  0  0  0
    5.6179   -0.2737   -1.1878 H   0  0  0  0  0  0  0  0  0  0  0  0
   -5.7361    3.9479   -0.2751 H   0  0  0  0  0  0  0  0  0  0  0  0
   -5.1660    3.1518   -1.7576 H   0  0  0  0  0  0  0  0  0  0  0  0
   -6.8748    3.2464   -1.4083 H   0  0  0  0  0  0  0  0  0  0  0  0
   -7.9323    1.4400   -0.2795 H   0  0  0  0  0  0  0  0  0  0  0  0
   -6.9544    0.1693    0.6259 H   0  0  0  0  0  0  0  0  0  0  0  0
    6.9833   -2.0665    0.9693 H   0  0  0  0  0  0  0  0  0  0  0  0
   -6.3926   -4.3392    1.2090 H   0  0  0  0  0  0  0  0  0  0  0  0
    9.1973   -1.3687    1.7134 H   0  0  0  0  0  0  0  0  0  0  0  0
    9.4325    0.3831    1.6294 H   0  0  0  0  0  0  0  0  0  0  0  0
   10.0793   -0.6666    0.3490 H   0  0  0  0  0  0  0  0  0  0  0  0
    8.7263    1.5378   -2.2198 H   0  0  0  0  0  0  0  0  0  0  0  0
  1 30  1  0  0  0  0
  1 76  1  0  0  0  0
  2 30  2  0  0  0  0
  3 34  1  0  0  0  0
  3 80  1  0  0  0  0
  4 34  2  0  0  0  0
  5  6  1  0  0  0  0
  5  7  1  0  0  0  0
  5  9  1  0  0  0  0
  5 15  1  0  0  0  0
  6  8  1  0  0  0  0
  6 11  1  0  0  0  0
  6 17  1  0  0  0  0
  7 12  1  0  0  0  0
  7 14  1  0  0  0  0
  7 35  1  0  0  0  0
  8 10  1  0  0  0  0
  8 16  1  0  0  0  0
  8 36  1  0  0  0  0
  9 10  1  0  0  0  0
  9 37  1  0  0  0  0
  9 38  1  0  0  0  0
 10 39  1  0  0  0  0
 10 40  1  0  0  0  0
 11 18  1  0  0  0  0
 11 41  1  0  0  0  0
 11 42  1  0  0  0  0
 12 13  1  0  0  0  0
 12 18  2  0  0  0  0
 13 19  1  0  0  0  0
 13 21  1  0  0  0  0
 13 23  1  0  0  0  0
 14 20  1  0  0  0  0
 14 43  1  0  0  0  0
 14 44  1  0  0  0  0
 15 45  1  0  0  0  0
 15 46  1  0  0  0  0
 15 47  1  0  0  0  0
 16 22  1  0  0  0  0
 16 24  1  0  0  0  0
 16 48  1  0  0  0  0
 17 49  1  0  0  0  0
 17 50  1  0  0  0  0
 17 51  1  0  0  0  0
 18 52  1  0  0  0  0
 19 20  1  0  0  0  0
 19 25  1  0  0  0  0
 19 53  1  0  0  0  0
 20 54  1  0  0  0  0
 20 55  1  0  0  0  0
 21 26  1  0  0  0  0
 21 56  1  0  0  0  0
 21 57  1  0  0  0  0
 22 27  1  0  0  0  0
 22 58  1  0  0  0  0
 22 59  1  0  0  0  0
 23 60  1  0  0  0  0
 23 61  1  0  0  0  0
 23 62  1  0  0  0  0
 24 63  1  0  0  0  0
 24 64  1  0  0  0  0
 24 65  1  0  0  0  0
 25 28  1  0  0  0  0
 25 29  2  0  0  0  0
 26 30  1  0  0  0  0
 26 66  1  0  0  0  0
 26 67  1  0  0  0  0
 27 31  1  0  0  0  0
 27 68  1  0  0  0  0
 27 69  1  0  0  0  0
 28 70  1  0  0  0  0
 28 71  1  0  0  0  0
 28 72  1  0  0  0  0
 29 73  1  0  0  0  0
 29 74  1  0  0  0  0
 31 32  2  0  0  0  0
 31 75  1  0  0  0  0
 32 33  1  0  0  0  0
 32 34  1  0  0  0  0
 33 77  1  0  0  0  0
 33 78  1  0  0  0  0
 33 79  1  0  0  0  0
M  END
> <PUBCHEM_COMPOUND_CID>
5384417

> <PUBCHEM_CONFORMER_RMSD>
1

> <PUBCHEM_CONFORMER_DIVERSEORDER>
2
48
47
63
70
54
64
52
32
17
55
67
60
43
68
42
73
53
20
44
22
49
65
57
62
28
16
36
74
58
66
71
46
39
69
56
19
21
45
18
61
30
4
50
72
3
37
23
41
38
14
40
59
13
35
29
6
25
11
51
8
12
34
24
26
33
31
15
10
27
9
7
5
1

> <PUBCHEM_MMFF94_PARTIAL_CHARGES>
26
1 -0.65
11 0.14
12 -0.28
13 0.14
18 -0.29
19 0.14
2 -0.57
25 -0.28
26 0.06
27 0.14
28 0.14
29 -0.3
3 -0.65
30 0.66
31 -0.29
32 -0.12
33 0.14
34 0.71
4 -0.57
52 0.15
7 0.14
73 0.15
74 0.15
75 0.15
76 0.5
80 0.5

> <PUBCHEM_EFFECTIVE_ROTOR_COUNT>
10.6

> <PUBCHEM_PHARMACOPHORE_FEATURES>
12
1 1 acceptor
1 2 acceptor
1 24 hydrophobe
1 3 acceptor
1 33 hydrophobe
1 4 acceptor
3 1 2 30 anion
3 3 4 34 anion
4 16 22 27 31 hydrophobe
5 5 6 8 9 10 rings
6 5 6 7 11 12 18 rings
6 7 12 13 14 19 20 rings

> <PUBCHEM_HEAVY_ATOM_COUNT>
34

> <PUBCHEM_ATOM_DEF_STEREO_COUNT>
6

> <PUBCHEM_ATOM_UDEF_STEREO_COUNT>
1

> <PUBCHEM_BOND_DEF_STEREO_COUNT>
1

> <PUBCHEM_BOND_UDEF_STEREO_COUNT>
0

> <PUBCHEM_ISOTOPIC_ATOM_COUNT>
0

> <PUBCHEM_COMPONENT_COUNT>
1

> <PUBCHEM_CACTVS_TAUTO_COUNT>
1

> <PUBCHEM_CONFORMER_ID>
005228E100000002

> <PUBCHEM_MMFF94_ENERGY>
123.4933

> <PUBCHEM_FEATURE_SELFOVERLAP>
61.095

> <PUBCHEM_SHAPE_FINGERPRINT>
10076449 9 18200318835122972642
10165383 225 18263359201948749317
10290309 65 17988932123750927534
10906281 52 18130518431298626362
11007060 377 17458061594663558050
11315181 36 18187082867140223479
12082328 90 18408881832831076350
13631057 29 18410007758613347435
13811026 1 18131060558680774241
14856354 85 18342741801978914141
15183329 4 18342178848031413364
15361156 5 18130782344148984109
15461852 350 18261118478713159326
1577012 14 18260548909998558006
16989713 51 17916859252883255159
17686467 74 18040998509067108980
18608769 82 18341895203558024747
21756936 100 15430315777136888101
21792961 116 17775007856242931790
23559900 14 18131057230139486681
23569917 315 18341619192740713638
24771293 8 17676491662092387580
24771750 20 18054231209714272356
2838139 119 16081091467793796414
335352 9 18130218282131498229
34797466 226 16702024215031600504
4073 2 18338520746253325923
4093350 32 16371281109711272184
4098825 35 18334575750235561744
44802255 64 17604418597830386991
4625314 4 18336828585721681134
5104073 3 18201147824198573769
5265222 85 18272367637542083430
6009941 240 18340765953660703891
70634741 139 18411703205105275018

> <PUBCHEM_SHAPE_MULTIPOLES>
676.23
23.34
3.05
1.45
46.71
1.48
-0.02
0.95
3.41
-6.91
-0.23
-0.14
-0.3
0.28

> <PUBCHEM_SHAPE_SELFOVERLAP>
1403.02

> <PUBCHEM_SHAPE_VOLUME>
384.6

> <PUBCHEM_COORDINATE_TYPE>
2
5
10

$$$$
