10814237
  -OEChem-08302003233D

 80 83  0     1  0  0  0  0  0999 V2000
    6.4356    2.9929    1.4658 O   0  0  0  0  0  0  0  0  0  0  0  0
    6.1983    2.9276   -0.7922 O   0  0  0  0  0  0  0  0  0  0  0  0
   -7.0255   -1.3922    1.3878 O   0  0  0  0  0  0  0  0  0  0  0  0
   -8.2155    0.4284    0.7351 O   0  0  0  0  0  0  0  0  0  0  0  0
    2.0590   -0.1563   -0.4212 C   0  0  2  0  0  0  0  0  0  0  0  0
    3.5548   -0.4342   -0.5426 C   0  0  2  0  0  0  0  0  0  0  0  0
    1.2014   -1.1220    0.4275 C   0  0  2  0  0  0  0  0  0  0  0  0
    2.6537   -0.7410   -1.6980 C   0  0  0  0  0  0  0  0  0  0  0  0
   -0.0619   -0.4237    1.0008 C   0  0  1  0  0  0  0  0  0  0  0  0
   -0.7319    0.4342   -0.1266 C   0  0  2  0  0  0  0  0  0  0  0  0
    1.6673    1.3189   -0.4499 C   0  0  0  0  0  0  0  0  0  0  0  0
    4.2264   -1.5175    0.2591 C   0  0  1  0  0  0  0  0  0  0  0  0
    0.1616    1.6404   -0.4402 C   0  0  0  0  0  0  0  0  0  0  0  0
    2.0505   -1.8555    1.4802 C   0  0  0  0  0  0  0  0  0  0  0  0
    4.4750    0.7411   -0.7564 C   0  0  0  0  0  0  0  0  0  0  0  0
   -2.1027    0.7769    0.5168 C   0  0  2  0  0  0  0  0  0  0  0  0
    3.2412   -2.5504    0.8220 C   0  0  0  0  0  0  0  0  0  0  0  0
   -1.2172   -1.3760    1.3747 C   0  0  0  0  0  0  0  0  0  0  0  0
   -2.4974   -0.5247    1.2529 C   0  0  0  0  0  0  0  0  0  0  0  0
    0.2917    0.3750    2.2942 C   0  0  0  0  0  0  0  0  0  0  0  0
   -0.9755   -0.3364   -1.4610 C   0  0  0  0  0  0  0  0  0  0  0  0
    5.3344   -2.2001   -0.4864 C   0  0  0  0  0  0  0  0  0  0  0  0
   -3.2026    1.2822   -0.4100 C   0  0  1  0  0  0  0  0  0  0  0  0
    5.0115    1.3072    0.5489 C   0  0  0  0  0  0  0  0  0  0  0  0
   -4.5127    1.5996    0.3389 C   0  0  0  0  0  0  0  0  0  0  0  0
    4.9350   -2.9550   -1.7196 C   0  0  0  0  0  0  0  0  0  0  0  0
   -2.7241    2.5336   -1.1539 C   0  0  0  0  0  0  0  0  0  0  0  0
    6.6092   -2.1398   -0.0737 C   0  0  0  0  0  0  0  0  0  0  0  0
    5.9249    2.4861    0.3167 C   0  0  0  0  0  0  0  0  0  0  0  0
   -5.7368    1.6632   -0.5793 C   0  0  0  0  0  0  0  0  0  0  0  0
   -5.9692    0.3430   -1.2635 C   0  0  0  0  0  0  0  0  0  0  0  0
   -6.7316   -0.6745   -0.8210 C   0  0  0  0  0  0  0  0  0  0  0  0
   -6.9142   -1.9929   -1.5131 C   0  0  0  0  0  0  0  0  0  0  0  0
   -7.4127   -0.4579    0.4871 C   0  0  0  0  0  0  0  0  0  0  0  0
    0.8440   -1.9076   -0.2535 H   0  0  0  0  0  0  0  0  0  0  0  0
    2.6964   -0.1130   -2.5815 H   0  0  0  0  0  0  0  0  0  0  0  0
    2.4094   -1.7692   -1.9383 H   0  0  0  0  0  0  0  0  0  0  0  0
    2.1272    1.8291    0.4025 H   0  0  0  0  0  0  0  0  0  0  0  0
    2.0618    1.8150   -1.3438 H   0  0  0  0  0  0  0  0  0  0  0  0
    4.6378   -1.0781    1.1730 H   0  0  0  0  0  0  0  0  0  0  0  0
   -0.0079    2.4484    0.2829 H   0  0  0  0  0  0  0  0  0  0  0  0
   -0.0794    2.0714   -1.4168 H   0  0  0  0  0  0  0  0  0  0  0  0
    1.4361   -2.6021    1.9965 H   0  0  0  0  0  0  0  0  0  0  0  0
    2.4320   -1.1629    2.2388 H   0  0  0  0  0  0  0  0  0  0  0  0
    4.0383    1.5407   -1.3614 H   0  0  0  0  0  0  0  0  0  0  0  0
    5.3258    0.4084   -1.3677 H   0  0  0  0  0  0  0  0  0  0  0  0
   -1.9565    1.5563    1.2763 H   0  0  0  0  0  0  0  0  0  0  0  0
    3.7484   -3.1797    1.5647 H   0  0  0  0  0  0  0  0  0  0  0  0
    2.8541   -3.2284    0.0543 H   0  0  0  0  0  0  0  0  0  0  0  0
   -1.2745   -2.2245    0.6828 H   0  0  0  0  0  0  0  0  0  0  0  0
   -1.1176   -1.8014    2.3793 H   0  0  0  0  0  0  0  0  0  0  0  0
   -3.2641   -1.0952    0.7163 H   0  0  0  0  0  0  0  0  0  0  0  0
   -2.8956   -0.2921    2.2472 H   0  0  0  0  0  0  0  0  0  0  0  0
    0.5416   -0.3065    3.1160 H   0  0  0  0  0  0  0  0  0  0  0  0
   -0.5336    0.9879    2.6647 H   0  0  0  0  0  0  0  0  0  0  0  0
    1.1487    1.0382    2.1624 H   0  0  0  0  0  0  0  0  0  0  0  0
   -1.6285   -1.2045   -1.3263 H   0  0  0  0  0  0  0  0  0  0  0  0
   -1.4334    0.2896   -2.2309 H   0  0  0  0  0  0  0  0  0  0  0  0
   -0.0528   -0.7035   -1.9134 H   0  0  0  0  0  0  0  0  0  0  0  0
   -3.4111    0.5080   -1.1539 H   0  0  0  0  0  0  0  0  0  0  0  0
    4.1980    1.6259    1.2069 H   0  0  0  0  0  0  0  0  0  0  0  0
    5.6341    0.5874    1.0852 H   0  0  0  0  0  0  0  0  0  0  0  0
   -4.7086    0.8494    1.1135 H   0  0  0  0  0  0  0  0  0  0  0  0
   -4.4123    2.5566    0.8669 H   0  0  0  0  0  0  0  0  0  0  0  0
    4.1330   -3.6732   -1.5392 H   0  0  0  0  0  0  0  0  0  0  0  0
    4.6409   -2.2748   -2.5231 H   0  0  0  0  0  0  0  0  0  0  0  0
    5.7789   -3.5378   -2.1089 H   0  0  0  0  0  0  0  0  0  0  0  0
   -2.0481    2.3017   -1.9765 H   0  0  0  0  0  0  0  0  0  0  0  0
   -3.5582    3.0637   -1.6243 H   0  0  0  0  0  0  0  0  0  0  0  0
   -2.2414    3.2481   -0.4788 H   0  0  0  0  0  0  0  0  0  0  0  0
    6.8921   -1.5951    0.8205 H   0  0  0  0  0  0  0  0  0  0  0  0
    7.4029   -2.6366   -0.6218 H   0  0  0  0  0  0  0  0  0  0  0  0
   -6.6029    1.9940   -0.0006 H   0  0  0  0  0  0  0  0  0  0  0  0
   -5.6121    2.4311   -1.3504 H   0  0  0  0  0  0  0  0  0  0  0  0
    7.0359    3.7501    1.2972 H   0  0  0  0  0  0  0  0  0  0  0  0
   -5.4547    0.2126   -2.2142 H   0  0  0  0  0  0  0  0  0  0  0  0
   -6.5066   -2.8072   -0.9059 H   0  0  0  0  0  0  0  0  0  0  0  0
   -7.9777   -2.1853   -1.6862 H   0  0  0  0  0  0  0  0  0  0  0  0
   -6.4076   -2.0116   -2.4837 H   0  0  0  0  0  0  0  0  0  0  0  0
   -7.4637   -1.2679    2.2567 H   0  0  0  0  0  0  0  0  0  0  0  0
  1 29  1  0  0  0  0
  1 75  1  0  0  0  0
  2 29  2  0  0  0  0
  3 34  1  0  0  0  0
  3 80  1  0  0  0  0
  4 34  2  0  0  0  0
  5  6  1  0  0  0  0
  5  7  1  0  0  0  0
  5  8  1  0  0  0  0
  5 11  1  0  0  0  0
  6  8  1  0  0  0  0
  6 12  1  0  0  0  0
  6 15  1  0  0  0  0
  7  9  1  0  0  0  0
  7 14  1  0  0  0  0
  7 35  1  0  0  0  0
  8 36  1  0  0  0  0
  8 37  1  0  0  0  0
  9 10  1  0  0  0  0
  9 18  1  0  0  0  0
  9 20  1  0  0  0  0
 10 13  1  0  0  0  0
 10 16  1  0  0  0  0
 10 21  1  0  0  0  0
 11 13  1  0  0  0  0
 11 38  1  0  0  0  0
 11 39  1  0  0  0  0
 12 17  1  0  0  0  0
 12 22  1  0  0  0  0
 12 40  1  0  0  0  0
 13 41  1  0  0  0  0
 13 42  1  0  0  0  0
 14 17  1  0  0  0  0
 14 43  1  0  0  0  0
 14 44  1  0  0  0  0
 15 24  1  0  0  0  0
 15 45  1  0  0  0  0
 15 46  1  0  0  0  0
 16 19  1  0  0  0  0
 16 23  1  0  0  0  0
 16 47  1  0  0  0  0
 17 48  1  0  0  0  0
 17 49  1  0  0  0  0
 18 19  1  0  0  0  0
 18 50  1  0  0  0  0
 18 51  1  0  0  0  0
 19 52  1  0  0  0  0
 19 53  1  0  0  0  0
 20 54  1  0  0  0  0
 20 55  1  0  0  0  0
 20 56  1  0  0  0  0
 21 57  1  0  0  0  0
 21 58  1  0  0  0  0
 21 59  1  0  0  0  0
 22 26  1  0  0  0  0
 22 28  2  0  0  0  0
 23 25  1  0  0  0  0
 23 27  1  0  0  0  0
 23 60  1  0  0  0  0
 24 29  1  0  0  0  0
 24 61  1  0  0  0  0
 24 62  1  0  0  0  0
 25 30  1  0  0  0  0
 25 63  1  0  0  0  0
 25 64  1  0  0  0  0
 26 65  1  0  0  0  0
 26 66  1  0  0  0  0
 26 67  1  0  0  0  0
 27 68  1  0  0  0  0
 27 69  1  0  0  0  0
 27 70  1  0  0  0  0
 28 71  1  0  0  0  0
 28 72  1  0  0  0  0
 30 31  1  0  0  0  0
 30 73  1  0  0  0  0
 30 74  1  0  0  0  0
 31 32  2  0  0  0  0
 31 76  1  0  0  0  0
 32 33  1  0  0  0  0
 32 34  1  0  0  0  0
 33 77  1  0  0  0  0
 33 78  1  0  0  0  0
 33 79  1  0  0  0  0
M  END
> <PUBCHEM_COMPOUND_CID>
10814237

> <PUBCHEM_CONFORMER_RMSD>
1

> <PUBCHEM_CONFORMER_DIVERSEORDER>
7
2
4
6
1
8
5
10
9
3

> <PUBCHEM_MMFF94_PARTIAL_CHARGES>
28
1 -0.65
11 0.09
12 0.23
15 0.09
2 -0.57
22 -0.28
24 0.06
26 0.14
28 -0.3
29 0.66
3 -0.65
30 0.14
31 -0.29
32 -0.12
33 0.14
34 0.71
36 0.1
37 0.1
4 -0.57
5 -0.19
6 -0.19
7 0.09
71 0.15
72 0.15
75 0.5
76 0.15
8 -0.2
80 0.5

> <PUBCHEM_EFFECTIVE_ROTOR_COUNT>
10.8

> <PUBCHEM_PHARMACOPHORE_FEATURES>
12
1 1 acceptor
1 2 acceptor
1 27 hydrophobe
1 3 acceptor
1 33 hydrophobe
1 4 acceptor
3 1 2 29 anion
3 3 4 34 anion
4 23 25 30 31 hydrophobe
5 9 10 16 18 19 rings
6 5 7 9 10 11 13 rings
7 5 6 7 8 12 14 17 rings

> <PUBCHEM_HEAVY_ATOM_COUNT>
34

> <PUBCHEM_ATOM_DEF_STEREO_COUNT>
8

> <PUBCHEM_ATOM_UDEF_STEREO_COUNT>
0

> <PUBCHEM_BOND_DEF_STEREO_COUNT>
1

> <PUBCHEM_BOND_UDEF_STEREO_COUNT>
0

> <PUBCHEM_ISOTOPIC_ATOM_COUNT>
0

> <PUBCHEM_COMPONENT_COUNT>
1

> <PUBCHEM_CACTVS_TAUTO_COUNT>
1

> <PUBCHEM_CONFORMER_ID>
00A5031D00000007

> <PUBCHEM_MMFF94_ENERGY>
125.7241

> <PUBCHEM_FEATURE_SELFOVERLAP>
61.109

> <PUBCHEM_SHAPE_FINGERPRINT>
11578080 2 17844795078685676384
12166972 35 18201720613405390664
12236239 1 18343581815877360661
1361 4 18271523186874192847
13782708 43 18338520729236681991
13811026 1 18186517709257087896
14461889 52 18186801421647951208
14856354 85 17275384297020422237
15082195 135 17895774979506926676
15142383 8 15769776806800097553
15183329 4 16805326574565494999
18335252 98 18340769338211062151
20157964 124 18412825794356930740
21033648 29 17095801014667246485
21521721 280 18273216417347072179
21792938 703 18262517139129551387
22149856 69 18115324301911337473
23522609 53 17417267510445833129
23559900 14 18113912529075653204
23569943 247 17477494101798336778
24771293 8 18113616806817761597
335352 9 17822582608202793318
34797466 226 18342460322184749559
4093350 32 18273213089032384222
4098825 35 18343017791886638406
4340502 62 18186517717662217596
44317340 157 18272927206886711632
46194498 28 18270679758481124062
484989 97 17749969829058518235
6004065 56 18187926256566999549
70251023 43 18198346157165918854
7495541 125 18131624574345364481
9831232 110 17915749669324749646

> <PUBCHEM_SHAPE_MULTIPOLES>
676.23
20.29
3.06
1.63
23.19
0.67
-0.18
-1.24
2.11
-5.12
0.28
0.24
-0.43
1.16

> <PUBCHEM_SHAPE_SELFOVERLAP>
1418.041

> <PUBCHEM_SHAPE_VOLUME>
381.9

> <PUBCHEM_COORDINATE_TYPE>
2
5
10

$$$$
