307918
  -OEChem-08302002523D

 32 34  0     0  0  0  0  0  0999 V2000
    0.4877   -1.5180    0.5913 C   0  0  0  0  0  0  0  0  0  0  0  0
   -0.4879   -1.5181   -0.5916 C   0  0  0  0  0  0  0  0  0  0  0  0
    0.4874    1.5175    0.5915 C   0  0  0  0  0  0  0  0  0  0  0  0
   -0.4873    1.5174   -0.5920 C   0  0  0  0  0  0  0  0  0  0  0  0
    1.7329   -0.7045    0.3194 C   0  0  0  0  0  0  0  0  0  0  0  0
   -1.7331   -0.7046   -0.3197 C   0  0  0  0  0  0  0  0  0  0  0  0
    1.7329    0.7045    0.3201 C   0  0  0  0  0  0  0  0  0  0  0  0
   -1.7330    0.7043   -0.3204 C   0  0  0  0  0  0  0  0  0  0  0  0
    2.9303   -1.3880    0.0379 C   0  0  0  0  0  0  0  0  0  0  0  0
   -2.9306   -1.3879   -0.0380 C   0  0  0  0  0  0  0  0  0  0  0  0
    2.9306    1.3882    0.0400 C   0  0  0  0  0  0  0  0  0  0  0  0
   -2.9303    1.3882   -0.0400 C   0  0  0  0  0  0  0  0  0  0  0  0
    4.1088   -0.6943   -0.2331 C   0  0  0  0  0  0  0  0  0  0  0  0
   -4.1087   -0.6942    0.2339 C   0  0  0  0  0  0  0  0  0  0  0  0
    4.1090    0.6947   -0.2320 C   0  0  0  0  0  0  0  0  0  0  0  0
   -4.1087    0.6949    0.2327 C   0  0  0  0  0  0  0  0  0  0  0  0
    0.7863   -2.5566    0.7880 H   0  0  0  0  0  0  0  0  0  0  0  0
    0.0199   -1.1796    1.5240 H   0  0  0  0  0  0  0  0  0  0  0  0
   -0.7866   -2.5568   -0.7880 H   0  0  0  0  0  0  0  0  0  0  0  0
   -0.0200   -1.1799   -1.5245 H   0  0  0  0  0  0  0  0  0  0  0  0
    0.0191    1.1788    1.5240 H   0  0  0  0  0  0  0  0  0  0  0  0
    0.7856    2.5561    0.7885 H   0  0  0  0  0  0  0  0  0  0  0  0
   -0.0191    1.1785   -1.5245 H   0  0  0  0  0  0  0  0  0  0  0  0
   -0.7855    2.5561   -0.7892 H   0  0  0  0  0  0  0  0  0  0  0  0
    2.9518   -2.4755    0.0253 H   0  0  0  0  0  0  0  0  0  0  0  0
   -2.9523   -2.4754   -0.0255 H   0  0  0  0  0  0  0  0  0  0  0  0
    2.9522    2.4757    0.0289 H   0  0  0  0  0  0  0  0  0  0  0  0
   -2.9519    2.4758   -0.0289 H   0  0  0  0  0  0  0  0  0  0  0  0
    5.0232   -1.2394   -0.4474 H   0  0  0  0  0  0  0  0  0  0  0  0
   -5.0232   -1.2391    0.4487 H   0  0  0  0  0  0  0  0  0  0  0  0
    5.0236    1.2398   -0.4454 H   0  0  0  0  0  0  0  0  0  0  0  0
   -5.0231    1.2402    0.4466 H   0  0  0  0  0  0  0  0  0  0  0  0
  1  2  1  0  0  0  0
  1  5  1  0  0  0  0
  1 17  1  0  0  0  0
  1 18  1  0  0  0  0
  2  6  1  0  0  0  0
  2 19  1  0  0  0  0
  2 20  1  0  0  0  0
  3  4  1  0  0  0  0
  3  7  1  0  0  0  0
  3 21  1  0  0  0  0
  3 22  1  0  0  0  0
  4  8  1  0  0  0  0
  4 23  1  0  0  0  0
  4 24  1  0  0  0  0
  5  7  1  0  0  0  0
  5  9  2  0  0  0  0
  6  8  1  0  0  0  0
  6 10  2  0  0  0  0
  7 11  2  0  0  0  0
  8 12  2  0  0  0  0
  9 13  1  0  0  0  0
  9 25  1  0  0  0  0
 10 14  1  0  0  0  0
 10 26  1  0  0  0  0
 11 15  1  0  0  0  0
 11 27  1  0  0  0  0
 12 16  1  0  0  0  0
 12 28  1  0  0  0  0
 13 15  2  0  0  0  0
 13 29  1  0  0  0  0
 14 16  2  0  0  0  0
 14 30  1  0  0  0  0
 15 31  1  0  0  0  0
 16 32  1  0  0  0  0
M  END
> <PUBCHEM_COMPOUND_CID>
307918

> <PUBCHEM_CONFORMER_RMSD>
0.4

> <PUBCHEM_CONFORMER_DIVERSEORDER>
1
3
5
2
4

> <PUBCHEM_MMFF94_PARTIAL_CHARGES>
24
1 0.14
10 -0.15
11 -0.15
12 -0.15
13 -0.15
14 -0.15
15 -0.15
16 -0.15
2 0.14
25 0.15
26 0.15
27 0.15
28 0.15
29 0.15
3 0.14
30 0.15
31 0.15
32 0.15
4 0.14
5 -0.14
6 -0.14
7 -0.14
8 -0.14
9 -0.15

> <PUBCHEM_EFFECTIVE_ROTOR_COUNT>
0.8

> <PUBCHEM_PHARMACOPHORE_FEATURES>
2
6 5 7 9 11 13 15 rings
6 6 8 10 12 14 16 rings

> <PUBCHEM_HEAVY_ATOM_COUNT>
16

> <PUBCHEM_ATOM_DEF_STEREO_COUNT>
0

> <PUBCHEM_ATOM_UDEF_STEREO_COUNT>
0

> <PUBCHEM_BOND_DEF_STEREO_COUNT>
0

> <PUBCHEM_BOND_UDEF_STEREO_COUNT>
0

> <PUBCHEM_ISOTOPIC_ATOM_COUNT>
0

> <PUBCHEM_COMPONENT_COUNT>
1

> <PUBCHEM_CACTVS_TAUTO_COUNT>
1

> <PUBCHEM_CONFORMER_ID>
0004B2CE00000001

> <PUBCHEM_MMFF94_ENERGY>
52.3618

> <PUBCHEM_FEATURE_SELFOVERLAP>
10.149

> <PUBCHEM_SHAPE_FINGERPRINT>
10608611 8 18410569591400199653
10616163 171 18340488966550862535
10967382 1 18410854343610881066
10980938 120 18411416206853284506
11132069 177 18411411813022385577
11471102 20 18411696586802985358
12011746 2 18409444778758087935
12032990 46 18410858762958051399
12251169 10 18411703192758066187
13221675 6 18410570690916920294
14289901 80 15647049352396994819
15196674 1 18410573985151451137
15309172 13 18272093798816628299
15375462 189 18335135362893646090
15442244 35 18267020544802404602
15536298 74 18342455958740647872
15775835 57 18410576188469680480
16945 1 18338781377710784518
17804303 29 18341897411260697165
17844478 74 18114180821837824821
18186145 218 18187359918073720414
19422 9 18410577287981412192
19591789 44 18410573989447029058
21249577 43 18410573985167288397
21267235 1 18410864260516528066
221490 88 18336272331279402410
23402539 116 18342450452803675174
23402655 69 18413388730903282316
23463225 33 18409448076675857485
23559900 14 18272086102962980840
2748010 2 18338503196990009197
2871803 45 18260822700719632847
3323516 105 18411138056360511632
335352 9 18194681453948699068
474 4 17169278233362892060
4990 188 18202291285968245758
5104073 3 18410573985204206130
537710 114 18410579495721378380
69090 78 18201433709521407079
7364860 26 18196933485907584280
77779 3 18410857663446384654
7832392 63 18200306744504775430
84936 31 16199032686785992727
8809292 202 18333735727530889931
9709674 26 18411142462981509798

> <PUBCHEM_SHAPE_MULTIPOLES>
329.27
7.79
1.92
0.74
0
0
0
0
0
0
0
0
0
0

> <PUBCHEM_SHAPE_SELFOVERLAP>
715.147

> <PUBCHEM_SHAPE_VOLUME>
167.8

> <PUBCHEM_COORDINATE_TYPE>
2
5
10

$$$$
