15658444
  -OEChem-08302003083D

 48 50  0     1  0  0  0  0  0999 V2000
    5.5264    1.6540   -1.3920 O   0  0  0  0  0  0  0  0  0  0  0  0
    6.9108    0.4422    0.1646 O   0  0  0  0  0  0  0  0  0  0  0  0
   -4.5433    2.7316    0.7429 O   0  0  0  0  0  0  0  0  0  0  0  0
   -6.6868    1.2264   -0.1881 O   0  0  0  0  0  0  0  0  0  0  0  0
    0.7990   -1.3102   -0.3373 C   0  0  1  0  0  0  0  0  0  0  0  0
   -0.7172   -1.1470   -0.6772 C   0  0  2  0  0  0  0  0  0  0  0  0
    1.3592   -0.1626    0.5349 C   0  0  0  0  0  0  0  0  0  0  0  0
   -1.6428   -1.1902    0.5638 C   0  0  0  0  0  0  0  0  0  0  0  0
    1.0620   -2.6751    0.3214 C   0  0  0  0  0  0  0  0  0  0  0  0
   -1.2184   -2.1752   -1.7013 C   0  0  0  0  0  0  0  0  0  0  0  0
    2.8627   -0.0226    0.4639 C   0  0  0  0  0  0  0  0  0  0  0  0
   -2.9905   -0.5408    0.3642 C   0  0  0  0  0  0  0  0  0  0  0  0
    3.4180    0.8055   -0.5010 C   0  0  0  0  0  0  0  0  0  0  0  0
    3.6512   -0.7314    1.3728 C   0  0  0  0  0  0  0  0  0  0  0  0
   -3.1444    0.8069    0.6488 C   0  0  0  0  0  0  0  0  0  0  0  0
   -4.0501   -1.3038   -0.1007 C   0  0  0  0  0  0  0  0  0  0  0  0
    4.7942    0.9010   -0.5266 C   0  0  0  0  0  0  0  0  0  0  0  0
    5.5848    0.2089    0.3621 C   0  0  0  0  0  0  0  0  0  0  0  0
    5.0427   -0.6169    1.3254 C   0  0  0  0  0  0  0  0  0  0  0  0
   -4.3898    1.4072    0.4638 C   0  0  0  0  0  0  0  0  0  0  0  0
   -5.2956   -0.7035   -0.2853 C   0  0  0  0  0  0  0  0  0  0  0  0
   -5.4656    0.6520   -0.0033 C   0  0  0  0  0  0  0  0  0  0  0  0
    6.8666    1.3589   -0.9478 C   0  0  0  0  0  0  0  0  0  0  0  0
   -7.7332    0.3847   -0.6683 C   0  0  0  0  0  0  0  0  0  0  0  0
    1.3370   -1.3029   -1.2957 H   0  0  0  0  0  0  0  0  0  0  0  0
   -0.8169   -0.1596   -1.1501 H   0  0  0  0  0  0  0  0  0  0  0  0
    0.9118    0.7891    0.2182 H   0  0  0  0  0  0  0  0  0  0  0  0
    1.0590   -0.2874    1.5831 H   0  0  0  0  0  0  0  0  0  0  0  0
   -1.7851   -2.2257    0.9013 H   0  0  0  0  0  0  0  0  0  0  0  0
   -1.1613   -0.6874    1.4112 H   0  0  0  0  0  0  0  0  0  0  0  0
    2.1349   -2.8685    0.4112 H   0  0  0  0  0  0  0  0  0  0  0  0
    0.6263   -2.7303    1.3243 H   0  0  0  0  0  0  0  0  0  0  0  0
    0.6542   -3.4977   -0.2730 H   0  0  0  0  0  0  0  0  0  0  0  0
   -2.1711   -1.8635   -2.1406 H   0  0  0  0  0  0  0  0  0  0  0  0
   -1.3600   -3.1667   -1.2598 H   0  0  0  0  0  0  0  0  0  0  0  0
   -0.5071   -2.2717   -2.5286 H   0  0  0  0  0  0  0  0  0  0  0  0
    2.8067    1.3542   -1.2086 H   0  0  0  0  0  0  0  0  0  0  0  0
    3.1986   -1.3697    2.1267 H   0  0  0  0  0  0  0  0  0  0  0  0
   -2.3029    1.3928    1.0098 H   0  0  0  0  0  0  0  0  0  0  0  0
   -3.9306   -2.3614   -0.3175 H   0  0  0  0  0  0  0  0  0  0  0  0
    5.6690   -1.1593    2.0246 H   0  0  0  0  0  0  0  0  0  0  0  0
   -6.0852   -1.3518   -0.6493 H   0  0  0  0  0  0  0  0  0  0  0  0
    7.3518    2.2957   -0.6502 H   0  0  0  0  0  0  0  0  0  0  0  0
    7.4254    0.9233   -1.7840 H   0  0  0  0  0  0  0  0  0  0  0  0
   -3.6946    3.0904    1.0544 H   0  0  0  0  0  0  0  0  0  0  0  0
   -7.9678   -0.4138    0.0439 H   0  0  0  0  0  0  0  0  0  0  0  0
   -8.6311    1.0053   -0.7567 H   0  0  0  0  0  0  0  0  0  0  0  0
   -7.5136   -0.0009   -1.6697 H   0  0  0  0  0  0  0  0  0  0  0  0
  1 17  1  0  0  0  0
  1 23  1  0  0  0  0
  2 18  1  0  0  0  0
  2 23  1  0  0  0  0
  3 20  1  0  0  0  0
  3 45  1  0  0  0  0
  4 22  1  0  0  0  0
  4 24  1  0  0  0  0
  5  6  1  0  0  0  0
  5  7  1  0  0  0  0
  5  9  1  0  0  0  0
  5 25  1  0  0  0  0
  6  8  1  0  0  0  0
  6 10  1  0  0  0  0
  6 26  1  0  0  0  0
  7 11  1  0  0  0  0
  7 27  1  0  0  0  0
  7 28  1  0  0  0  0
  8 12  1  0  0  0  0
  8 29  1  0  0  0  0
  8 30  1  0  0  0  0
  9 31  1  0  0  0  0
  9 32  1  0  0  0  0
  9 33  1  0  0  0  0
 10 34  1  0  0  0  0
 10 35  1  0  0  0  0
 10 36  1  0  0  0  0
 11 13  2  0  0  0  0
 11 14  1  0  0  0  0
 12 15  2  0  0  0  0
 12 16  1  0  0  0  0
 13 17  1  0  0  0  0
 13 37  1  0  0  0  0
 14 19  2  0  0  0  0
 14 38  1  0  0  0  0
 15 20  1  0  0  0  0
 15 39  1  0  0  0  0
 16 21  2  0  0  0  0
 16 40  1  0  0  0  0
 17 18  2  0  0  0  0
 18 19  1  0  0  0  0
 19 41  1  0  0  0  0
 20 22  2  0  0  0  0
 21 22  1  0  0  0  0
 21 42  1  0  0  0  0
 23 43  1  0  0  0  0
 23 44  1  0  0  0  0
 24 46  1  0  0  0  0
 24 47  1  0  0  0  0
 24 48  1  0  0  0  0
M  END
> <PUBCHEM_COMPOUND_CID>
15658444

> <PUBCHEM_CONFORMER_RMSD>
0.8

> <PUBCHEM_CONFORMER_DIVERSEORDER>
17
36
334
345
194
297
151
158
176
214
65
45
289
361
364
34
42
342
316
259
255
63
307
337
174
191
208
149
298
30
230
301
116
321
12
125
300
365
57
35
8
305
166
325
3
190
150
314
315
19
113
133
312
220
309
265
374
204
71
1
237
28
159
212
338
233
154
143
366
11
352
119
235
177
317
271
152
72
272
160
55
288
89
13
354
322
202
330
132
168
47
341
231
129
165
313
293
6
16
339
53
96
147
73
117
48
344
163
273
219
118
304
2
306
192
333
123
40
127
359
162
20
136
335
81
32
183
134
97
254
256
137
74
76
126
181
311
102
29
122
350
110
226
59
368
54
7
227
211
64
355
99
253
49
98
356
111
270
75
263
33
249
199
38
336
371
290
107
349
155
246
262
216
319
310
296
360
367
140
69
46
250
23
238
351
145
108
240
68
131
185
277
251
373
217
106
142
209
332
22
241
213
372
115
9
264
27
234
101
70
175
112
257
243
203
328
109
62
268
138
283
187
26
128
239
223
66
156
326
164
56
77
228
363
196
44
207
267
302
184
61
91
180
135
340
141
157
195
67
18
343
206
299
37
172
103
294
124
236
229
362
331
171
318
320
295
348
224
201
324
369
178
173
200
10
25
15
346
60
93
161
221
182
92
31
327
94
291
370
144
284
358
179
105
248
21
197
379
258
114
121
244
274
24
82
347
85
169
269
90
280
376
139
58
252
148
275
287
286
14
193
205
222
130
43
242
84
245
86
261
83
225
329
170
285
210
276
4
87
153
146
357
51
247
375
79
281
88
120
266
323
232
260
198
378
215
39
308
50
95
377
167
282
353
41
188
278
100
78
279
292
189
104
52
303
80
218
5
186

> <PUBCHEM_MMFF94_PARTIAL_CHARGES>
27
1 -0.36
11 -0.14
12 -0.14
13 -0.15
14 -0.15
15 -0.15
16 -0.15
17 0.08
18 0.08
19 -0.15
2 -0.36
20 0.08
21 -0.15
22 0.08
23 0.56
24 0.28
3 -0.53
37 0.15
38 0.15
39 0.15
4 -0.36
40 0.15
41 0.15
42 0.15
45 0.45
7 0.14
8 0.14

> <PUBCHEM_EFFECTIVE_ROTOR_COUNT>
6.6

> <PUBCHEM_PHARMACOPHORE_FEATURES>
10
1 1 acceptor
1 10 hydrophobe
1 2 acceptor
1 3 donor
1 4 acceptor
1 9 hydrophobe
4 5 6 7 8 hydrophobe
5 1 2 17 18 23 rings
6 11 13 14 17 18 19 rings
6 12 15 16 20 21 22 rings

> <PUBCHEM_HEAVY_ATOM_COUNT>
24

> <PUBCHEM_ATOM_DEF_STEREO_COUNT>
0

> <PUBCHEM_ATOM_UDEF_STEREO_COUNT>
2

> <PUBCHEM_BOND_DEF_STEREO_COUNT>
0

> <PUBCHEM_BOND_UDEF_STEREO_COUNT>
0

> <PUBCHEM_ISOTOPIC_ATOM_COUNT>
0

> <PUBCHEM_COMPONENT_COUNT>
1

> <PUBCHEM_CACTVS_TAUTO_COUNT>
9

> <PUBCHEM_CONFORMER_ID>
00EEEDCC00000011

> <PUBCHEM_MMFF94_ENERGY>
73.9222

> <PUBCHEM_FEATURE_SELFOVERLAP>
51.07

> <PUBCHEM_SHAPE_FINGERPRINT>
10 15 18113623387440024355
10429389 143 17676196954511692757
105312 117 17775566441992635839
10591671 39 18272653471899796471
106641 1 17022908973730614915
10670039 82 17775294824256234168
10730089 173 18343866623316033273
10753850 27 10519988153655614102
11315621 246 17202750623139957087
11991303 11 16988556965512665903
12107183 9 17758106004070083322
12166972 35 11455891373672682978
12236239 1 18334011722635544490
12516196 113 13406794419662608295
12596602 18 17458346351369738537
12633257 1 16588312716878502526
13167372 99 18260546702169258912
13668630 136 13254802338754071524
13685833 64 8502651515376643655
13785724 45 17830164711391647586
14251751 18 8862936161097935875
14251764 18 18186237355414449991
14257110 125 18412545405595567367
14341114 176 16732979817269103430
14341114 328 18113333102636154651
15183329 4 18343023289397440936
15348495 7 14273749485292833373
1577012 14 18334853939409290690
15961568 22 18409732829256480005
17134984 74 14764627512781613324
17980427 23 18260835908234601197
18335252 98 18408890647000863875
200 152 12175634979475685346
20281389 69 18407755937155793304
21298829 104 18337957792754075653
21521239 73 14261633923832436342
22061861 79 15195570108598496620
22122407 14 18114475542541759696
221357 26 15626224610894132762
2215653 11 16056886849153815942
22224240 67 16081085995810386411
23035841 295 8790885190036832341
23559900 14 15554161571339209666
2838139 119 18272645744831728721
3103668 31 17486752346402411823
312425 54 15719393932060643649
314173 85 13840262585199013575
3411729 13 18335983073722478122
34797466 226 16128648678178279833
397830 11 14635451453258500180
4073 2 17749113317578894490
4098825 35 13614252455767054035
5104073 3 17241603009095303600
59682541 35 12685097012267870332
59682541 52 16630254619366349478
59755656 215 17346601863262203766
59755656 520 18341606036026167423
6328613 192 18262523705833664964

> <PUBCHEM_SHAPE_MULTIPOLES>
470.43
19.99
2.12
1.16
1.66
0.23
-0.13
-11.3
-2.26
1.06
-0.23
-0.96
0.16
-1.89

> <PUBCHEM_SHAPE_SELFOVERLAP>
1004.988

> <PUBCHEM_SHAPE_VOLUME>
262.7

> <PUBCHEM_COORDINATE_TYPE>
2
5
10

$$$$
