160497
  -OEChem-08302003043D

 82 86  0     1  0  0  0  0  0999 V2000
   -1.8781    0.5499    0.0712 C   0  0  1  0  0  0  0  0  0  0  0  0
   -3.3704    0.6345   -0.3565 C   0  0  2  0  0  0  0  0  0  0  0  0
   -2.9382    1.1221    0.9999 C   0  0  0  0  0  0  0  0  0  0  0  0
   -1.3043   -0.8164    0.5318 C   0  0  2  0  0  0  0  0  0  0  0  0
   -4.1691   -0.6668   -0.5252 C   0  0  1  0  0  0  0  0  0  0  0  0
    0.2217   -0.9334    0.2827 C   0  0  1  0  0  0  0  0  0  0  0  0
   -0.9080    1.5545   -0.5673 C   0  0  0  0  0  0  0  0  0  0  0  0
    0.9264    0.3652    0.7959 C   0  0  2  0  0  0  0  0  0  0  0  0
   -3.8321    1.7007   -1.3378 C   0  0  0  0  0  0  0  0  0  0  0  0
   -2.1115   -2.0008   -0.0169 C   0  0  0  0  0  0  0  0  0  0  0  0
   -3.5974   -1.8350    0.2897 C   0  0  0  0  0  0  0  0  0  0  0  0
    0.5708    1.5183   -0.1417 C   0  0  0  0  0  0  0  0  0  0  0  0
   -5.7083   -0.4309   -0.3483 C   0  0  0  0  0  0  0  0  0  0  0  0
    2.4197   -0.0600    0.7765 C   0  0  2  0  0  0  0  0  0  0  0  0
    0.9341   -2.0125    1.1255 C   0  0  0  0  0  0  0  0  0  0  0  0
   -5.3221    1.9830   -1.1678 C   0  0  0  0  0  0  0  0  0  0  0  0
   -6.1552    0.7103   -1.3028 C   0  0  0  0  0  0  0  0  0  0  0  0
    2.3902   -1.5267    1.2616 C   0  0  0  0  0  0  0  0  0  0  0  0
    0.5039   -1.2688   -1.2148 C   0  0  0  0  0  0  0  0  0  0  0  0
    0.5308    0.7875    2.2429 C   0  0  0  0  0  0  0  0  0  0  0  0
    3.4009    0.7982    1.5673 C   0  0  1  0  0  0  0  0  0  0  0  0
   -6.0989   -0.0825    1.1016 C   0  0  0  0  0  0  0  0  0  0  0  0
   -6.4991   -1.6976   -0.7466 C   0  0  0  0  0  0  0  0  0  0  0  0
    4.8553    0.2989    1.4511 C   0  0  0  0  0  0  0  0  0  0  0  0
    3.3243    2.2533    1.0909 C   0  0  0  0  0  0  0  0  0  0  0  0
    5.4232    0.2024    0.0288 C   0  0  0  0  0  0  0  0  0  0  0  0
    6.8442   -0.3677   -0.0243 C   0  0  0  0  0  0  0  0  0  0  0  0
    7.4401   -0.3977   -1.4454 C   0  0  0  0  0  0  0  0  0  0  0  0
    7.4664    0.9842   -2.1005 C   0  0  0  0  0  0  0  0  0  0  0  0
    6.6407   -1.3662   -2.3213 C   0  0  0  0  0  0  0  0  0  0  0  0
   -3.2280    0.5569    1.8784 H   0  0  0  0  0  0  0  0  0  0  0  0
   -2.9343    2.1903    1.1921 H   0  0  0  0  0  0  0  0  0  0  0  0
   -1.4458   -0.8620    1.6212 H   0  0  0  0  0  0  0  0  0  0  0  0
   -4.0260   -0.9518   -1.5800 H   0  0  0  0  0  0  0  0  0  0  0  0
   -1.2628    2.5787   -0.3968 H   0  0  0  0  0  0  0  0  0  0  0  0
   -0.9548    1.4149   -1.6549 H   0  0  0  0  0  0  0  0  0  0  0  0
   -3.6287    1.3600   -2.3604 H   0  0  0  0  0  0  0  0  0  0  0  0
   -3.2937    2.6446   -1.2061 H   0  0  0  0  0  0  0  0  0  0  0  0
   -1.7535   -2.9331    0.4351 H   0  0  0  0  0  0  0  0  0  0  0  0
   -1.9919   -2.0993   -1.1014 H   0  0  0  0  0  0  0  0  0  0  0  0
   -4.1048   -2.7674    0.0204 H   0  0  0  0  0  0  0  0  0  0  0  0
   -3.7419   -1.6913    1.3655 H   0  0  0  0  0  0  0  0  0  0  0  0
    1.1840    1.4829   -1.0516 H   0  0  0  0  0  0  0  0  0  0  0  0
    0.7939    2.4885    0.3122 H   0  0  0  0  0  0  0  0  0  0  0  0
    2.7454   -0.0542   -0.2688 H   0  0  0  0  0  0  0  0  0  0  0  0
    0.8901   -3.0099    0.6745 H   0  0  0  0  0  0  0  0  0  0  0  0
    0.4838   -2.1015    2.1212 H   0  0  0  0  0  0  0  0  0  0  0  0
   -5.5042    2.4462   -0.1914 H   0  0  0  0  0  0  0  0  0  0  0  0
   -5.6432    2.7090   -1.9238 H   0  0  0  0  0  0  0  0  0  0  0  0
   -7.2116    0.9550   -1.1343 H   0  0  0  0  0  0  0  0  0  0  0  0
   -6.0834    0.3628   -2.3425 H   0  0  0  0  0  0  0  0  0  0  0  0
    2.7101   -1.6295    2.3046 H   0  0  0  0  0  0  0  0  0  0  0  0
    3.0609   -2.1415    0.6507 H   0  0  0  0  0  0  0  0  0  0  0  0
    1.5636   -1.2243   -1.4776 H   0  0  0  0  0  0  0  0  0  0  0  0
    0.1879   -2.2914   -1.4517 H   0  0  0  0  0  0  0  0  0  0  0  0
   -0.0265   -0.6062   -1.9026 H   0  0  0  0  0  0  0  0  0  0  0  0
    1.0476    1.6897    2.5773 H   0  0  0  0  0  0  0  0  0  0  0  0
   -0.5309    1.0245    2.3381 H   0  0  0  0  0  0  0  0  0  0  0  0
    0.7499    0.0053    2.9765 H   0  0  0  0  0  0  0  0  0  0  0  0
    3.1566    0.7767    2.6365 H   0  0  0  0  0  0  0  0  0  0  0  0
   -5.6148    0.8291    1.4598 H   0  0  0  0  0  0  0  0  0  0  0  0
   -7.1805    0.0784    1.1837 H   0  0  0  0  0  0  0  0  0  0  0  0
   -5.8424   -0.8909    1.7938 H   0  0  0  0  0  0  0  0  0  0  0  0
   -6.3337   -2.5196   -0.0426 H   0  0  0  0  0  0  0  0  0  0  0  0
   -7.5773   -1.4996   -0.7607 H   0  0  0  0  0  0  0  0  0  0  0  0
   -6.2141   -2.0454   -1.7458 H   0  0  0  0  0  0  0  0  0  0  0  0
    5.5056    0.9547    2.0451 H   0  0  0  0  0  0  0  0  0  0  0  0
    4.9305   -0.6891    1.9224 H   0  0  0  0  0  0  0  0  0  0  0  0
    3.3026    2.3334   -0.0007 H   0  0  0  0  0  0  0  0  0  0  0  0
    4.2035    2.8124    1.4339 H   0  0  0  0  0  0  0  0  0  0  0  0
    2.4718    2.7905    1.5070 H   0  0  0  0  0  0  0  0  0  0  0  0
    4.7758   -0.4374   -0.5752 H   0  0  0  0  0  0  0  0  0  0  0  0
    5.4037    1.2015   -0.4159 H   0  0  0  0  0  0  0  0  0  0  0  0
    6.8497   -1.3798    0.3989 H   0  0  0  0  0  0  0  0  0  0  0  0
    7.4953    0.2412    0.6156 H   0  0  0  0  0  0  0  0  0  0  0  0
    8.4701   -0.7675   -1.3688 H   0  0  0  0  0  0  0  0  0  0  0  0
    7.9470    1.7174   -1.4446 H   0  0  0  0  0  0  0  0  0  0  0  0
    8.0396    0.9478   -3.0336 H   0  0  0  0  0  0  0  0  0  0  0  0
    6.4652    1.3478   -2.3518 H   0  0  0  0  0  0  0  0  0  0  0  0
    6.5521   -2.3479   -1.8441 H   0  0  0  0  0  0  0  0  0  0  0  0
    7.1493   -1.5119   -3.2810 H   0  0  0  0  0  0  0  0  0  0  0  0
    5.6343   -0.9976   -2.5428 H   0  0  0  0  0  0  0  0  0  0  0  0
  1  2  1  0  0  0  0
  1  3  1  0  0  0  0
  1  4  1  0  0  0  0
  1  7  1  0  0  0  0
  2  3  1  0  0  0  0
  2  5  1  0  0  0  0
  2  9  1  0  0  0  0
  3 31  1  0  0  0  0
  3 32  1  0  0  0  0
  4  6  1  0  0  0  0
  4 10  1  0  0  0  0
  4 33  1  0  0  0  0
  5 11  1  0  0  0  0
  5 13  1  0  0  0  0
  5 34  1  0  0  0  0
  6  8  1  0  0  0  0
  6 15  1  0  0  0  0
  6 19  1  0  0  0  0
  7 12  1  0  0  0  0
  7 35  1  0  0  0  0
  7 36  1  0  0  0  0
  8 12  1  0  0  0  0
  8 14  1  0  0  0  0
  8 20  1  0  0  0  0
  9 16  1  0  0  0  0
  9 37  1  0  0  0  0
  9 38  1  0  0  0  0
 10 11  1  0  0  0  0
 10 39  1  0  0  0  0
 10 40  1  0  0  0  0
 11 41  1  0  0  0  0
 11 42  1  0  0  0  0
 12 43  1  0  0  0  0
 12 44  1  0  0  0  0
 13 17  1  0  0  0  0
 13 22  1  0  0  0  0
 13 23  1  0  0  0  0
 14 18  1  0  0  0  0
 14 21  1  0  0  0  0
 14 45  1  0  0  0  0
 15 18  1  0  0  0  0
 15 46  1  0  0  0  0
 15 47  1  0  0  0  0
 16 17  1  0  0  0  0
 16 48  1  0  0  0  0
 16 49  1  0  0  0  0
 17 50  1  0  0  0  0
 17 51  1  0  0  0  0
 18 52  1  0  0  0  0
 18 53  1  0  0  0  0
 19 54  1  0  0  0  0
 19 55  1  0  0  0  0
 19 56  1  0  0  0  0
 20 57  1  0  0  0  0
 20 58  1  0  0  0  0
 20 59  1  0  0  0  0
 21 24  1  0  0  0  0
 21 25  1  0  0  0  0
 21 60  1  0  0  0  0
 22 61  1  0  0  0  0
 22 62  1  0  0  0  0
 22 63  1  0  0  0  0
 23 64  1  0  0  0  0
 23 65  1  0  0  0  0
 23 66  1  0  0  0  0
 24 26  1  0  0  0  0
 24 67  1  0  0  0  0
 24 68  1  0  0  0  0
 25 69  1  0  0  0  0
 25 70  1  0  0  0  0
 25 71  1  0  0  0  0
 26 27  1  0  0  0  0
 26 72  1  0  0  0  0
 26 73  1  0  0  0  0
 27 28  1  0  0  0  0
 27 74  1  0  0  0  0
 27 75  1  0  0  0  0
 28 29  1  0  0  0  0
 28 30  1  0  0  0  0
 28 76  1  0  0  0  0
 29 77  1  0  0  0  0
 29 78  1  0  0  0  0
 29 79  1  0  0  0  0
 30 80  1  0  0  0  0
 30 81  1  0  0  0  0
 30 82  1  0  0  0  0
M  END
> <PUBCHEM_COMPOUND_CID>
160497

> <PUBCHEM_CONFORMER_RMSD>
1

> <PUBCHEM_CONFORMER_DIVERSEORDER>
1
4
3
2

> <PUBCHEM_MMFF94_PARTIAL_CHARGES>
9
1 -0.19
2 -0.19
3 -0.2
31 0.1
32 0.1
4 0.09
5 0.09
7 0.09
9 0.09

> <PUBCHEM_EFFECTIVE_ROTOR_COUNT>
7.4

> <PUBCHEM_PHARMACOPHORE_FEATURES>
8
1 25 hydrophobe
3 13 22 23 hydrophobe
3 28 29 30 hydrophobe
5 21 24 26 27 28 hydrophobe
5 6 8 14 15 18 rings
6 1 4 6 7 8 12 rings
6 2 5 9 13 16 17 rings
7 1 2 3 4 5 10 11 rings

> <PUBCHEM_HEAVY_ATOM_COUNT>
30

> <PUBCHEM_ATOM_DEF_STEREO_COUNT>
8

> <PUBCHEM_ATOM_UDEF_STEREO_COUNT>
0

> <PUBCHEM_BOND_DEF_STEREO_COUNT>
0

> <PUBCHEM_BOND_UDEF_STEREO_COUNT>
0

> <PUBCHEM_ISOTOPIC_ATOM_COUNT>
0

> <PUBCHEM_COMPONENT_COUNT>
1

> <PUBCHEM_CACTVS_TAUTO_COUNT>
1

> <PUBCHEM_CONFORMER_ID>
000272F100000001

> <PUBCHEM_MMFF94_ENERGY>
114.869

> <PUBCHEM_FEATURE_SELFOVERLAP>
40.707

> <PUBCHEM_SHAPE_FINGERPRINT>
10554248 39 17460289115038278822
10591671 39 18113621191846605006
10670039 82 18334014952361722252
10906281 52 17458629960533887681
11578080 2 17170375326522816119
11991303 11 18271242832578082638
12011746 2 18341886394468947657
12166972 35 18409445920618820329
12236239 1 16877654647772519299
12403259 415 18339066168534636641
12596602 18 15430031041747366681
13533116 47 15626220230934773826
13782708 43 17131828785320609390
13914758 101 16056887905087906560
14840074 17 16298385764616124094
14849402 71 15285652009329452343
14856354 85 17894632591020582943
14955137 171 17846215613222599169
15131766 46 14996857653466493558
15183329 4 18413112741195810122
15196674 1 18263628620566793923
15575132 122 17168137919434761612
15685185 35 15865220042709293948
16994733 274 16226044479340559524
17980427 23 16805324349619111295
18681886 176 18336817688609202377
20105231 36 18410019848888529995
2026 5 16772966779567099438
21033648 29 18197189573923251345
21150785 3 17313104172133056206
21267235 1 18336826489783045307
21279426 13 18342451569284227560
21682296 61 17203337680502139070
21781051 124 18270127940571964574
21792961 116 18411706453018500466
2215653 11 17989488516058224950
23522609 53 17750524979214536812
23559900 14 18131346436157121530
23569914 152 16694980463306057900
23569943 247 16199874951474545702
23576562 1 17750804430938962886
34797466 226 18272085054532317224
350125 39 18408876339694108945
3545911 37 18410285922053715347
4058900 60 17894911776426102882
4073 2 17313384483727589899
4169191 19 14201408178805891142
445580 37 18334013865349698973
5104073 3 18188476975117694009
5265222 85 18334860571092003406
59755656 215 18413105048466648118
59755656 520 15769485517670024629
6328613 192 17603586335345511348

> <PUBCHEM_SHAPE_MULTIPOLES>
617.39
18.8
2.09
1.86
16.41
0.05
0.24
0.46
10.86
-1.08
0.12
2.52
-0.19
1.23

> <PUBCHEM_SHAPE_SELFOVERLAP>
1290.79

> <PUBCHEM_SHAPE_VOLUME>
351.2

> <PUBCHEM_COORDINATE_TYPE>
2
5
10

$$$$
