42604341
  -OEChem-08302002073D

 56 57  0     1  0  0  0  0  0999 V2000
   -3.3576   -1.5268   -0.3378 O   0  0  0  0  0  0  0  0  0  0  0  0
   -1.3830    3.2046   -1.7962 O   0  0  0  0  0  0  0  0  0  0  0  0
    3.4855   -1.2829   -2.3489 O   0  0  0  0  0  0  0  0  0  0  0  0
   -0.3821    5.2526   -0.2056 O   0  0  0  0  0  0  0  0  0  0  0  0
    5.4660   -1.9613   -0.5205 O   0  0  0  0  0  0  0  0  0  0  0  0
   -5.2132   -2.9027   -0.3238 O   0  0  0  0  0  0  0  0  0  0  0  0
   -0.8074   -1.1224    0.9423 C   0  0  2  0  0  0  0  0  0  0  0  0
    0.3941   -0.1704    1.3037 C   0  0  0  0  0  0  0  0  0  0  0  0
   -2.1612   -0.6651    1.5860 C   0  0  1  0  0  0  0  0  0  0  0  0
   -0.4680   -2.5807    1.3118 C   0  0  0  0  0  0  0  0  0  0  0  0
    0.1842    1.2891    0.8940 C   0  0  0  0  0  0  0  0  0  0  0  0
    1.7571   -0.6526    0.8098 C   0  0  0  0  0  0  0  0  0  0  0  0
   -3.3337   -1.5278    1.0856 C   0  0  0  0  0  0  0  0  0  0  0  0
   -2.1427   -0.6340    3.1206 C   0  0  0  0  0  0  0  0  0  0  0  0
   -0.5094    1.5917   -0.2778 C   0  0  0  0  0  0  0  0  0  0  0  0
    2.0076   -0.7527   -0.5587 C   0  0  0  0  0  0  0  0  0  0  0  0
    0.6857    2.3168    1.6928 C   0  0  0  0  0  0  0  0  0  0  0  0
    2.7512   -0.9922    1.7275 C   0  0  0  0  0  0  0  0  0  0  0  0
   -0.7017    2.9220   -0.6507 C   0  0  0  0  0  0  0  0  0  0  0  0
    3.2524   -1.1918   -1.0096 C   0  0  0  0  0  0  0  0  0  0  0  0
    0.4936    3.6471    1.3196 C   0  0  0  0  0  0  0  0  0  0  0  0
    3.9959   -1.4317    1.2765 C   0  0  0  0  0  0  0  0  0  0  0  0
   -0.2002    3.9498    0.1480 C   0  0  0  0  0  0  0  0  0  0  0  0
    4.2466   -1.5314   -0.0920 C   0  0  0  0  0  0  0  0  0  0  0  0
   -4.3563   -2.2597   -0.9150 C   0  0  0  0  0  0  0  0  0  0  0  0
   -4.2571   -2.1671   -2.4075 C   0  0  0  0  0  0  0  0  0  0  0  0
   -1.8624    2.0962   -2.5550 C   0  0  0  0  0  0  0  0  0  0  0  0
    2.4162   -0.9168   -3.2189 C   0  0  0  0  0  0  0  0  0  0  0  0
   -0.9309   -1.1356   -0.1467 H   0  0  0  0  0  0  0  0  0  0  0  0
    0.4501   -0.1718    2.4009 H   0  0  0  0  0  0  0  0  0  0  0  0
   -2.3712    0.3548    1.2440 H   0  0  0  0  0  0  0  0  0  0  0  0
   -0.2378   -2.6828    2.3769 H   0  0  0  0  0  0  0  0  0  0  0  0
    0.3984   -2.9437    0.7497 H   0  0  0  0  0  0  0  0  0  0  0  0
   -1.2837   -3.2668    1.0704 H   0  0  0  0  0  0  0  0  0  0  0  0
   -4.2746   -1.0969    1.4512 H   0  0  0  0  0  0  0  0  0  0  0  0
   -3.2693   -2.5542    1.4629 H   0  0  0  0  0  0  0  0  0  0  0  0
   -1.9341   -1.6204    3.5450 H   0  0  0  0  0  0  0  0  0  0  0  0
   -3.1176   -0.3123    3.5041 H   0  0  0  0  0  0  0  0  0  0  0  0
   -1.4029    0.0735    3.5042 H   0  0  0  0  0  0  0  0  0  0  0  0
   -0.8676    0.7749   -0.8878 H   0  0  0  0  0  0  0  0  0  0  0  0
    1.2010   -0.4923   -1.2327 H   0  0  0  0  0  0  0  0  0  0  0  0
    1.2281    2.0952    2.6079 H   0  0  0  0  0  0  0  0  0  0  0  0
    2.5724   -0.9204    2.7968 H   0  0  0  0  0  0  0  0  0  0  0  0
    0.8897    4.4379    1.9511 H   0  0  0  0  0  0  0  0  0  0  0  0
    4.7614   -1.6930    2.0022 H   0  0  0  0  0  0  0  0  0  0  0  0
   -4.3589   -1.1252   -2.7214 H   0  0  0  0  0  0  0  0  0  0  0  0
   -5.0645   -2.7485   -2.8619 H   0  0  0  0  0  0  0  0  0  0  0  0
   -3.3008   -2.5779   -2.7408 H   0  0  0  0  0  0  0  0  0  0  0  0
    0.0318    5.8233    0.4644 H   0  0  0  0  0  0  0  0  0  0  0  0
    6.0249   -2.1500    0.2529 H   0  0  0  0  0  0  0  0  0  0  0  0
   -2.3833    2.5054   -3.4271 H   0  0  0  0  0  0  0  0  0  0  0  0
   -2.5983    1.5090   -1.9947 H   0  0  0  0  0  0  0  0  0  0  0  0
   -1.0398    1.4822   -2.9380 H   0  0  0  0  0  0  0  0  0  0  0  0
    2.7774   -1.0465   -4.2445 H   0  0  0  0  0  0  0  0  0  0  0  0
    2.1486    0.1398   -3.1089 H   0  0  0  0  0  0  0  0  0  0  0  0
    1.5535   -1.5813   -3.1006 H   0  0  0  0  0  0  0  0  0  0  0  0
  1 13  1  0  0  0  0
  1 25  1  0  0  0  0
  2 19  1  0  0  0  0
  2 27  1  0  0  0  0
  3 20  1  0  0  0  0
  3 28  1  0  0  0  0
  4 23  1  0  0  0  0
  4 49  1  0  0  0  0
  5 24  1  0  0  0  0
  5 50  1  0  0  0  0
  6 25  2  0  0  0  0
  7  8  1  0  0  0  0
  7  9  1  0  0  0  0
  7 10  1  0  0  0  0
  7 29  1  0  0  0  0
  8 11  1  0  0  0  0
  8 12  1  0  0  0  0
  8 30  1  0  0  0  0
  9 13  1  0  0  0  0
  9 14  1  0  0  0  0
  9 31  1  0  0  0  0
 10 32  1  0  0  0  0
 10 33  1  0  0  0  0
 10 34  1  0  0  0  0
 11 15  2  0  0  0  0
 11 17  1  0  0  0  0
 12 16  2  0  0  0  0
 12 18  1  0  0  0  0
 13 35  1  0  0  0  0
 13 36  1  0  0  0  0
 14 37  1  0  0  0  0
 14 38  1  0  0  0  0
 14 39  1  0  0  0  0
 15 19  1  0  0  0  0
 15 40  1  0  0  0  0
 16 20  1  0  0  0  0
 16 41  1  0  0  0  0
 17 21  2  0  0  0  0
 17 42  1  0  0  0  0
 18 22  2  0  0  0  0
 18 43  1  0  0  0  0
 19 23  2  0  0  0  0
 20 24  2  0  0  0  0
 21 23  1  0  0  0  0
 21 44  1  0  0  0  0
 22 24  1  0  0  0  0
 22 45  1  0  0  0  0
 25 26  1  0  0  0  0
 26 46  1  0  0  0  0
 26 47  1  0  0  0  0
 26 48  1  0  0  0  0
 27 51  1  0  0  0  0
 27 52  1  0  0  0  0
 27 53  1  0  0  0  0
 28 54  1  0  0  0  0
 28 55  1  0  0  0  0
 28 56  1  0  0  0  0
M  END
> <PUBCHEM_COMPOUND_CID>
42604341

> <PUBCHEM_CONFORMER_RMSD>
1

> <PUBCHEM_CONFORMER_DIVERSEORDER>
1
33
135
107
62
69
154
153
108
71
55
60
74
101
85
111
86
64
147
155
122
118
56
112
106
119
148
39
23
138
22
142
6
37
159
133
158
75
61
59
54
94
25
96
140
129
109
113
120
92
157
68
79
38
116
66
42
123
77
87
146
76
72
114
160
43
100
80
136
58
11
89
53
78
98
45
73
97
149
82
95
67
126
44
90
3
83
110
15
151
145
84
26
48
10
40
150
143
141
91
125
9
35
31
51
134
156
128
70
103
13
161
8
12
52
46
41
50
88
36
24
137
144
21
27
18
130
7
2
99
121
28
57
32
16
63
49
124
104
19
93
81
34
152
131
105
139
47
29
115
20
14
102
4
65
117
17
5
127
132
30

> <PUBCHEM_MMFF94_PARTIAL_CHARGES>
32
1 -0.43
11 -0.14
12 -0.14
13 0.28
15 -0.15
16 -0.15
17 -0.15
18 -0.15
19 0.08
2 -0.36
20 0.08
21 -0.15
22 -0.15
23 0.08
24 0.08
25 0.66
26 0.06
27 0.28
28 0.28
3 -0.36
4 -0.53
40 0.15
41 0.15
42 0.15
43 0.15
44 0.15
45 0.15
49 0.45
5 -0.53
50 0.45
6 -0.57
8 0.29

> <PUBCHEM_EFFECTIVE_ROTOR_COUNT>
9

> <PUBCHEM_PHARMACOPHORE_FEATURES>
9
1 10 hydrophobe
1 14 hydrophobe
1 2 acceptor
1 3 acceptor
1 4 donor
1 5 donor
1 6 acceptor
6 11 15 17 19 21 23 rings
6 12 16 18 20 22 24 rings

> <PUBCHEM_HEAVY_ATOM_COUNT>
28

> <PUBCHEM_ATOM_DEF_STEREO_COUNT>
0

> <PUBCHEM_ATOM_UDEF_STEREO_COUNT>
2

> <PUBCHEM_BOND_DEF_STEREO_COUNT>
0

> <PUBCHEM_BOND_UDEF_STEREO_COUNT>
0

> <PUBCHEM_ISOTOPIC_ATOM_COUNT>
0

> <PUBCHEM_COMPONENT_COUNT>
1

> <PUBCHEM_CACTVS_TAUTO_COUNT>
5

> <PUBCHEM_CONFORMER_ID>
028A173500000001

> <PUBCHEM_MMFF94_ENERGY>
94.2352

> <PUBCHEM_FEATURE_SELFOVERLAP>
45.671

> <PUBCHEM_SHAPE_FINGERPRINT>
11477941 20 17980241619000419796
12156800 1 15434481864948291148
12160290 23 17975151854361652584
12293681 25 17629749077227014638
12788726 201 18116715110345952553
133893 2 17978249462337938811
13681431 1 18196389214660886504
13899415 180 18341037597204449771
14068700 675 18261387833012715478
14863182 85 16700334358888687318
16752209 62 18114179679783180658
1813 80 18272662276308790895
19319366 153 17389931272272816249
20600515 1 18196960909468714714
21344244 181 17338437779347031397
21756936 100 15871456335160074278
22907989 373 18042703723032280534
23419403 2 17699812324395930465
26353 1 18338250335206640061
35225 105 17906193762101312117
4017518 198 17407396310201483744
5080951 261 17630028374782218318
5081480 168 18189060953204472503

> <PUBCHEM_SHAPE_MULTIPOLES>
541.01
7.73
5.15
2.89
0.01
8.05
1.21
-11.13
3.18
2.55
0.76
0.48
-0.59
0.62

> <PUBCHEM_SHAPE_SELFOVERLAP>
1128.833

> <PUBCHEM_SHAPE_VOLUME>
307.6

> <PUBCHEM_COORDINATE_TYPE>
2
5
10

$$$$
