22416599
  -OEChem-08302002453D

 12 13  0     0  0  0  0  0  0999 V2000
   -1.2515   -1.1580    0.0000 O   0  0  0  0  0  0  0  0  0  0  0  0
    1.2514    1.1580   -0.0003 O   0  0  0  0  0  0  0  0  0  0  0  0
    0.0165   -0.6698   -0.0001 C   0  0  0  0  0  0  0  0  0  0  0  0
   -0.0165    0.6696    0.0002 C   0  0  0  0  0  0  0  0  0  0  0  0
    1.3325   -1.1409    0.0000 C   0  0  0  0  0  0  0  0  0  0  0  0
   -1.3325    1.1409    0.0001 C   0  0  0  0  0  0  0  0  0  0  0  0
   -2.0464   -0.0401   -0.0001 C   0  0  0  0  0  0  0  0  0  0  0  0
    2.0465    0.0402    0.0001 C   0  0  0  0  0  0  0  0  0  0  0  0
    1.7144   -2.1499    0.0000 H   0  0  0  0  0  0  0  0  0  0  0  0
   -1.7142    2.1499    0.0001 H   0  0  0  0  0  0  0  0  0  0  0  0
   -3.1067   -0.2507   -0.0003 H   0  0  0  0  0  0  0  0  0  0  0  0
    3.1067    0.2508    0.0002 H   0  0  0  0  0  0  0  0  0  0  0  0
  1  3  1  0  0  0  0
  1  7  1  0  0  0  0
  2  4  1  0  0  0  0
  2  8  1  0  0  0  0
  3  4  2  0  0  0  0
  3  5  1  0  0  0  0
  4  6  1  0  0  0  0
  5  8  2  0  0  0  0
  5  9  1  0  0  0  0
  6  7  2  0  0  0  0
  6 10  1  0  0  0  0
  7 11  1  0  0  0  0
  8 12  1  0  0  0  0
M  END
> <PUBCHEM_COMPOUND_CID>
22416599

> <PUBCHEM_CONFORMER_RMSD>
0.4

> <PUBCHEM_CONFORMER_DIVERSEORDER>
1

> <PUBCHEM_MMFF94_PARTIAL_CHARGES>
12
1 -0.31
10 0.15
11 0.15
12 0.15
2 -0.31
3 0.18
4 0.18
5 -0.16
6 -0.16
7 -0.01
8 -0.01
9 0.15

> <PUBCHEM_EFFECTIVE_ROTOR_COUNT>
0

> <PUBCHEM_PHARMACOPHORE_FEATURES>
4
1 1 acceptor
1 2 acceptor
5 1 3 4 6 7 rings
5 2 3 4 5 8 rings

> <PUBCHEM_HEAVY_ATOM_COUNT>
8

> <PUBCHEM_ATOM_DEF_STEREO_COUNT>
0

> <PUBCHEM_ATOM_UDEF_STEREO_COUNT>
0

> <PUBCHEM_BOND_DEF_STEREO_COUNT>
0

> <PUBCHEM_BOND_UDEF_STEREO_COUNT>
0

> <PUBCHEM_ISOTOPIC_ATOM_COUNT>
0

> <PUBCHEM_COMPONENT_COUNT>
1

> <PUBCHEM_CACTVS_TAUTO_COUNT>
1

> <PUBCHEM_CONFORMER_ID>
01560CD700000001

> <PUBCHEM_MMFF94_ENERGY>
8.5851

> <PUBCHEM_FEATURE_SELFOVERLAP>
20.626

> <PUBCHEM_SHAPE_FINGERPRINT>
18185500 45 18410571799018424214
20096714 4 18410857633402758072
21040471 1 18338516313830609060
23552423 10 18260836942868375998
24536 1 18340193129166044904
29004967 10 18259992564918802552

> <PUBCHEM_SHAPE_MULTIPOLES>
152.9
2.51
1.31
0.59
0
0
0
0
0
0
0
0
0
0

> <PUBCHEM_SHAPE_SELFOVERLAP>
345.301

> <PUBCHEM_SHAPE_VOLUME>
84.2

> <PUBCHEM_COORDINATE_TYPE>
2
5
10

$$$$
