13844292
  -OEChem-08302002083D

 47 49  0     1  0  0  0  0  0999 V2000
   -3.1360    2.2205   -1.3824 O   0  0  0  0  0  0  0  0  0  0  0  0
   -4.0684   -2.5142   -0.0015 O   0  0  0  0  0  0  0  0  0  0  0  0
   -1.8407   -3.2674    1.4762 O   0  0  0  0  0  0  0  0  0  0  0  0
    3.5000   -1.0173   -2.0581 O   0  0  0  0  0  0  0  0  0  0  0  0
    5.2650   -1.2886    0.0713 O   0  0  0  0  0  0  0  0  0  0  0  0
    0.1070    2.4768    0.0141 C   0  0  1  0  0  0  0  0  0  0  0  0
    0.2148    1.1644    0.8562 C   0  0  1  0  0  0  0  0  0  0  0  0
   -1.3416    3.0093    0.0445 C   0  0  2  0  0  0  0  0  0  0  0  0
   -0.9439    0.1974    0.6250 C   0  0  0  0  0  0  0  0  0  0  0  0
   -2.2583    1.9584   -0.5660 C   0  0  0  0  0  0  0  0  0  0  0  0
   -2.0978    0.5711   -0.0783 C   0  0  0  0  0  0  0  0  0  0  0  0
    1.1085    3.5296    0.5184 C   0  0  0  0  0  0  0  0  0  0  0  0
    1.5767    0.5021    0.6412 C   0  0  0  0  0  0  0  0  0  0  0  0
   -1.5158    4.3418   -0.6901 C   0  0  0  0  0  0  0  0  0  0  0  0
   -0.8964   -1.1032    1.1631 C   0  0  0  0  0  0  0  0  0  0  0  0
   -3.1374   -0.3442   -0.2978 C   0  0  0  0  0  0  0  0  0  0  0  0
    1.9215    0.0395   -0.6220 C   0  0  0  0  0  0  0  0  0  0  0  0
    2.4516    0.3710    1.7118 C   0  0  0  0  0  0  0  0  0  0  0  0
   -1.9339   -2.0135    0.9522 C   0  0  0  0  0  0  0  0  0  0  0  0
   -3.0494   -1.6366    0.2134 C   0  0  0  0  0  0  0  0  0  0  0  0
    3.1633   -0.5650   -0.8181 C   0  0  0  0  0  0  0  0  0  0  0  0
    3.6932   -0.2334    1.5158 C   0  0  0  0  0  0  0  0  0  0  0  0
    4.0491   -0.7013    0.2509 C   0  0  0  0  0  0  0  0  0  0  0  0
   -3.9848   -3.3324   -1.1670 C   0  0  0  0  0  0  0  0  0  0  0  0
    3.1537   -2.3647   -2.3728 C   0  0  0  0  0  0  0  0  0  0  0  0
    0.3571    2.2621   -1.0344 H   0  0  0  0  0  0  0  0  0  0  0  0
    0.1312    1.4560    1.9142 H   0  0  0  0  0  0  0  0  0  0  0  0
   -1.6684    3.1576    1.0827 H   0  0  0  0  0  0  0  0  0  0  0  0
    2.1326    3.1448    0.5278 H   0  0  0  0  0  0  0  0  0  0  0  0
    1.1210    4.4105   -0.1306 H   0  0  0  0  0  0  0  0  0  0  0  0
    0.8594    3.8554    1.5339 H   0  0  0  0  0  0  0  0  0  0  0  0
   -0.9902    5.1534   -0.1782 H   0  0  0  0  0  0  0  0  0  0  0  0
   -1.1432    4.2796   -1.7184 H   0  0  0  0  0  0  0  0  0  0  0  0
   -2.5719    4.6307   -0.7375 H   0  0  0  0  0  0  0  0  0  0  0  0
   -0.0369   -1.4141    1.7531 H   0  0  0  0  0  0  0  0  0  0  0  0
   -4.0294   -0.0547   -0.8481 H   0  0  0  0  0  0  0  0  0  0  0  0
    1.2369    0.1338   -1.4608 H   0  0  0  0  0  0  0  0  0  0  0  0
    2.1869    0.7313    2.7018 H   0  0  0  0  0  0  0  0  0  0  0  0
    4.3737   -0.3330    2.3571 H   0  0  0  0  0  0  0  0  0  0  0  0
   -0.9982   -3.3505    1.9548 H   0  0  0  0  0  0  0  0  0  0  0  0
   -3.0894   -3.9611   -1.1333 H   0  0  0  0  0  0  0  0  0  0  0  0
   -3.9756   -2.7133   -2.0697 H   0  0  0  0  0  0  0  0  0  0  0  0
   -4.8657   -3.9794   -1.1954 H   0  0  0  0  0  0  0  0  0  0  0  0
    5.7413   -1.2963    0.9193 H   0  0  0  0  0  0  0  0  0  0  0  0
    2.0686   -2.5019   -2.3280 H   0  0  0  0  0  0  0  0  0  0  0  0
    3.6490   -3.0601   -1.6879 H   0  0  0  0  0  0  0  0  0  0  0  0
    3.4914   -2.5763   -3.3910 H   0  0  0  0  0  0  0  0  0  0  0  0
  1 10  2  0  0  0  0
  2 20  1  0  0  0  0
  2 24  1  0  0  0  0
  3 19  1  0  0  0  0
  3 40  1  0  0  0  0
  4 21  1  0  0  0  0
  4 25  1  0  0  0  0
  5 23  1  0  0  0  0
  5 44  1  0  0  0  0
  6  7  1  0  0  0  0
  6  8  1  0  0  0  0
  6 12  1  0  0  0  0
  6 26  1  0  0  0  0
  7  9  1  0  0  0  0
  7 13  1  0  0  0  0
  7 27  1  0  0  0  0
  8 10  1  0  0  0  0
  8 14  1  0  0  0  0
  8 28  1  0  0  0  0
  9 11  1  0  0  0  0
  9 15  2  0  0  0  0
 10 11  1  0  0  0  0
 11 16  2  0  0  0  0
 12 29  1  0  0  0  0
 12 30  1  0  0  0  0
 12 31  1  0  0  0  0
 13 17  2  0  0  0  0
 13 18  1  0  0  0  0
 14 32  1  0  0  0  0
 14 33  1  0  0  0  0
 14 34  1  0  0  0  0
 15 19  1  0  0  0  0
 15 35  1  0  0  0  0
 16 20  1  0  0  0  0
 16 36  1  0  0  0  0
 17 21  1  0  0  0  0
 17 37  1  0  0  0  0
 18 22  2  0  0  0  0
 18 38  1  0  0  0  0
 19 20  2  0  0  0  0
 21 23  2  0  0  0  0
 22 23  1  0  0  0  0
 22 39  1  0  0  0  0
 24 41  1  0  0  0  0
 24 42  1  0  0  0  0
 24 43  1  0  0  0  0
 25 45  1  0  0  0  0
 25 46  1  0  0  0  0
 25 47  1  0  0  0  0
M  END
> <PUBCHEM_COMPOUND_CID>
13844292

> <PUBCHEM_CONFORMER_RMSD>
0.8

> <PUBCHEM_CONFORMER_DIVERSEORDER>
3
8
6
5
7
2
4
1

> <PUBCHEM_MMFF94_PARTIAL_CHARGES>
29
1 -0.57
10 0.42
11 0.09
13 -0.14
15 -0.15
16 -0.15
17 -0.15
18 -0.15
19 0.08
2 -0.36
20 0.08
21 0.08
22 -0.15
23 0.08
24 0.28
25 0.28
3 -0.53
35 0.15
36 0.15
37 0.15
38 0.15
39 0.15
4 -0.36
40 0.45
44 0.45
5 -0.53
7 0.29
8 0.06
9 -0.14

> <PUBCHEM_EFFECTIVE_ROTOR_COUNT>
3.6

> <PUBCHEM_PHARMACOPHORE_FEATURES>
8
1 1 acceptor
1 2 acceptor
1 3 donor
1 4 acceptor
1 5 donor
6 13 17 18 21 22 23 rings
6 6 7 8 9 10 11 rings
6 9 11 15 16 19 20 rings

> <PUBCHEM_HEAVY_ATOM_COUNT>
25

> <PUBCHEM_ATOM_DEF_STEREO_COUNT>
3

> <PUBCHEM_ATOM_UDEF_STEREO_COUNT>
0

> <PUBCHEM_BOND_DEF_STEREO_COUNT>
0

> <PUBCHEM_BOND_UDEF_STEREO_COUNT>
0

> <PUBCHEM_ISOTOPIC_ATOM_COUNT>
0

> <PUBCHEM_COMPONENT_COUNT>
1

> <PUBCHEM_CACTVS_TAUTO_COUNT>
63

> <PUBCHEM_CONFORMER_ID>
00D33F4400000003

> <PUBCHEM_MMFF94_ENERGY>
93.2582

> <PUBCHEM_FEATURE_SELFOVERLAP>
40.617

> <PUBCHEM_SHAPE_FINGERPRINT>
10906281 52 17537718081461032809
11582403 64 16328425405834923736
11640471 11 17169284641374832892
116883 192 18338792442074209177
12160290 23 18190191087300593217
12293681 25 17987510421087712302
12363563 72 18337390564274320555
12553582 1 18261962950075548491
12714826 92 18187947065540409315
12788726 201 18261689107081343669
13140716 1 18336818775853457657
13681431 1 18122918791141703009
14022347 108 18261399965930901579
14790565 3 18192997006842694993
15420108 30 16975036485838039649
15463212 79 17823140021299467024
15475509 8 18340780282278570111
16752209 62 18041268916050378131
16945 1 18264763277390252841
1813 80 18266753544055495923
19141452 34 18201723968392040227
19591789 44 18334288752653796465
20645477 70 17907013233646214907
21285901 2 18343863320718343575
21344244 181 17913486840609450253
21452121 199 18263920119274941432
21781051 124 17899998036118036025
23184049 29 18262229040342339081
23419403 2 17773571979566298857
23557571 272 18342175506309363472
23559900 14 18268139869689037872
25019877 29 16327889797791449407
2748010 2 18263909103121755249
463206 1 18262231226486734314
48014 12 13739962042300320779
7399639 24 17986655160160866504
81228 2 18339935834892394457
9709674 26 18128535955977910206

> <PUBCHEM_SHAPE_MULTIPOLES>
485.14
7.7
4.65
1.63
4.42
2.69
-0.44
-6.66
-1.65
-4.55
-1.11
1.24
-0.97
1.74

> <PUBCHEM_SHAPE_SELFOVERLAP>
1050.418

> <PUBCHEM_SHAPE_VOLUME>
266.1

> <PUBCHEM_COORDINATE_TYPE>
2
5
10

$$$$
