13844295
  -OEChem-08302002373D

 47 49  0     1  0  0  0  0  0999 V2000
   -2.2260   -2.4403    1.9608 O   0  0  0  0  0  0  0  0  0  0  0  0
   -2.7664    2.9897   -1.2410 O   0  0  0  0  0  0  0  0  0  0  0  0
   -4.2739    1.9950    0.8685 O   0  0  0  0  0  0  0  0  0  0  0  0
    3.0627    1.2908    1.9733 O   0  0  0  0  0  0  0  0  0  0  0  0
    5.1824    1.1249    0.1838 O   0  0  0  0  0  0  0  0  0  0  0  0
    0.0132   -2.4999   -0.9130 C   0  0  1  0  0  0  0  0  0  0  0  0
    0.1067   -0.9795   -1.2137 C   0  0  1  0  0  0  0  0  0  0  0  0
   -0.2694   -2.7512    0.5820 C   0  0  1  0  0  0  0  0  0  0  0  0
   -1.0671   -0.2094   -0.6371 C   0  0  0  0  0  0  0  0  0  0  0  0
   -1.5163   -2.0121    1.0541 C   0  0  0  0  0  0  0  0  0  0  0  0
   -1.8323   -0.7001    0.4320 C   0  0  0  0  0  0  0  0  0  0  0  0
   -1.0142   -3.1735   -1.8412 C   0  0  0  0  0  0  0  0  0  0  0  0
    1.4731   -0.4116   -0.8341 C   0  0  0  0  0  0  0  0  0  0  0  0
   -0.3607   -4.2406    0.9217 C   0  0  0  0  0  0  0  0  0  0  0  0
   -1.3985    1.0418   -1.1864 C   0  0  0  0  0  0  0  0  0  0  0  0
   -2.9095    0.0453    0.9305 C   0  0  0  0  0  0  0  0  0  0  0  0
    1.6478    0.1869    0.4081 C   0  0  0  0  0  0  0  0  0  0  0  0
    2.5282   -0.4984   -1.7349 C   0  0  0  0  0  0  0  0  0  0  0  0
   -2.4693    1.7819   -0.6861 C   0  0  0  0  0  0  0  0  0  0  0  0
   -3.2245    1.2830    0.3707 C   0  0  0  0  0  0  0  0  0  0  0  0
    2.8953    0.7060    0.7546 C   0  0  0  0  0  0  0  0  0  0  0  0
    3.7755    0.0207   -1.3887 C   0  0  0  0  0  0  0  0  0  0  0  0
    3.9592    0.6228   -0.1439 C   0  0  0  0  0  0  0  0  0  0  0  0
   -2.1291    4.1356   -0.6793 C   0  0  0  0  0  0  0  0  0  0  0  0
    2.8131    2.6925    2.0595 C   0  0  0  0  0  0  0  0  0  0  0  0
    0.9804   -2.9640   -1.1538 H   0  0  0  0  0  0  0  0  0  0  0  0
    0.0269   -0.8639   -2.3057 H   0  0  0  0  0  0  0  0  0  0  0  0
    0.5631   -2.3476    1.1723 H   0  0  0  0  0  0  0  0  0  0  0  0
   -0.9826   -4.2629   -1.7406 H   0  0  0  0  0  0  0  0  0  0  0  0
   -2.0375   -2.8448   -1.6356 H   0  0  0  0  0  0  0  0  0  0  0  0
   -0.7931   -2.9467   -2.8900 H   0  0  0  0  0  0  0  0  0  0  0  0
   -1.2771   -4.6941    0.5296 H   0  0  0  0  0  0  0  0  0  0  0  0
    0.4996   -4.7881    0.5235 H   0  0  0  0  0  0  0  0  0  0  0  0
   -0.3723   -4.3860    2.0079 H   0  0  0  0  0  0  0  0  0  0  0  0
   -0.8158    1.4406   -2.0145 H   0  0  0  0  0  0  0  0  0  0  0  0
   -3.5063   -0.3312    1.7579 H   0  0  0  0  0  0  0  0  0  0  0  0
    0.8429    0.2541    1.1335 H   0  0  0  0  0  0  0  0  0  0  0  0
    2.3971   -0.9672   -2.7062 H   0  0  0  0  0  0  0  0  0  0  0  0
    4.6004   -0.0479   -2.0926 H   0  0  0  0  0  0  0  0  0  0  0  0
   -4.6796    1.4958    1.5980 H   0  0  0  0  0  0  0  0  0  0  0  0
   -2.4012    4.2500    0.3747 H   0  0  0  0  0  0  0  0  0  0  0  0
   -2.4689    5.0192   -1.2263 H   0  0  0  0  0  0  0  0  0  0  0  0
   -1.0419    4.0576   -0.7805 H   0  0  0  0  0  0  0  0  0  0  0  0
    5.1425    1.4674    1.0933 H   0  0  0  0  0  0  0  0  0  0  0  0
    1.7641    2.9075    1.8325 H   0  0  0  0  0  0  0  0  0  0  0  0
    3.4655    3.2463    1.3770 H   0  0  0  0  0  0  0  0  0  0  0  0
    3.0228    3.0154    3.0829 H   0  0  0  0  0  0  0  0  0  0  0  0
  1 10  2  0  0  0  0
  2 19  1  0  0  0  0
  2 24  1  0  0  0  0
  3 20  1  0  0  0  0
  3 40  1  0  0  0  0
  4 21  1  0  0  0  0
  4 25  1  0  0  0  0
  5 23  1  0  0  0  0
  5 44  1  0  0  0  0
  6  7  1  0  0  0  0
  6  8  1  0  0  0  0
  6 12  1  0  0  0  0
  6 26  1  0  0  0  0
  7  9  1  0  0  0  0
  7 13  1  0  0  0  0
  7 27  1  0  0  0  0
  8 10  1  0  0  0  0
  8 14  1  0  0  0  0
  8 28  1  0  0  0  0
  9 11  1  0  0  0  0
  9 15  2  0  0  0  0
 10 11  1  0  0  0  0
 11 16  2  0  0  0  0
 12 29  1  0  0  0  0
 12 30  1  0  0  0  0
 12 31  1  0  0  0  0
 13 17  2  0  0  0  0
 13 18  1  0  0  0  0
 14 32  1  0  0  0  0
 14 33  1  0  0  0  0
 14 34  1  0  0  0  0
 15 19  1  0  0  0  0
 15 35  1  0  0  0  0
 16 20  1  0  0  0  0
 16 36  1  0  0  0  0
 17 21  1  0  0  0  0
 17 37  1  0  0  0  0
 18 22  2  0  0  0  0
 18 38  1  0  0  0  0
 19 20  2  0  0  0  0
 21 23  2  0  0  0  0
 22 23  1  0  0  0  0
 22 39  1  0  0  0  0
 24 41  1  0  0  0  0
 24 42  1  0  0  0  0
 24 43  1  0  0  0  0
 25 45  1  0  0  0  0
 25 46  1  0  0  0  0
 25 47  1  0  0  0  0
M  END
> <PUBCHEM_COMPOUND_CID>
13844295

> <PUBCHEM_CONFORMER_RMSD>
0.8

> <PUBCHEM_CONFORMER_DIVERSEORDER>
1
7
9
8
2
3
10
4
5
6

> <PUBCHEM_MMFF94_PARTIAL_CHARGES>
29
1 -0.57
10 0.42
11 0.09
13 -0.14
15 -0.15
16 -0.15
17 -0.15
18 -0.15
19 0.08
2 -0.36
20 0.08
21 0.08
22 -0.15
23 0.08
24 0.28
25 0.28
3 -0.53
35 0.15
36 0.15
37 0.15
38 0.15
39 0.15
4 -0.36
40 0.45
44 0.45
5 -0.53
7 0.29
8 0.06
9 -0.14

> <PUBCHEM_EFFECTIVE_ROTOR_COUNT>
3.6

> <PUBCHEM_PHARMACOPHORE_FEATURES>
8
1 1 acceptor
1 2 acceptor
1 3 donor
1 4 acceptor
1 5 donor
6 13 17 18 21 22 23 rings
6 6 7 8 9 10 11 rings
6 9 11 15 16 19 20 rings

> <PUBCHEM_HEAVY_ATOM_COUNT>
25

> <PUBCHEM_ATOM_DEF_STEREO_COUNT>
3

> <PUBCHEM_ATOM_UDEF_STEREO_COUNT>
0

> <PUBCHEM_BOND_DEF_STEREO_COUNT>
0

> <PUBCHEM_BOND_UDEF_STEREO_COUNT>
0

> <PUBCHEM_ISOTOPIC_ATOM_COUNT>
0

> <PUBCHEM_COMPONENT_COUNT>
1

> <PUBCHEM_CACTVS_TAUTO_COUNT>
61

> <PUBCHEM_CONFORMER_ID>
00D33F4700000001

> <PUBCHEM_MMFF94_ENERGY>
91.421

> <PUBCHEM_FEATURE_SELFOVERLAP>
40.617

> <PUBCHEM_SHAPE_FINGERPRINT>
10165383 225 18193864577012974693
11582403 64 17197081484904214872
11725454 13 18271807882585284087
12156800 1 13815676487358230808
12788726 201 18190440835301121063
13004483 165 17624958814102343798
13134695 92 17259319091280766911
13140716 1 18117019838719000789
13294875 104 18053083039794656262
133893 2 17538812834085313647
13583140 156 18341607183515171114
13681431 1 17260461470919205991
14251764 3 18411981321491465105
14955137 171 16177643251741361624
15230672 131 18188500056773933646
15295992 7 18273217491078353136
16945 1 18113912575592650447
17974551 9 18041553646876297098
18219364 16 17774734159330623010
18981168 100 17416408881942405296
21033648 29 18130788975325249264
21524375 3 18340768143851704799
21731228 192 18408323254811236854
22149856 69 17319322817856649321
23419403 2 17551562848156965127
23536364 44 17265000302574412156
23559900 14 17318466284700410669
238 59 17703497792830323948
25 1 18059298643303212700
3187 122 17619887892070173624
350125 39 17755317673147772127
35225 105 18261097612775312696
427121 178 18190479172416283123
469060 322 16334387331605572194
495365 180 17538274048034656973
5265222 85 18262822713241580886
5845 1 11119641793623828310
6287921 2 17047967083845469376
6442390 28 18337686238771490891
7808743 9 18335710493902378684
81228 2 18123747818629987551
84936 182 17906169547170727029
90316 7 18046919443612856683
9981440 41 18189890933595430233

> <PUBCHEM_SHAPE_MULTIPOLES>
485.14
6.75
4.61
1.86
5.44
0.81
-0.25
-5.82
-1.1
-3.63
-0.37
0.52
0.16
1.97

> <PUBCHEM_SHAPE_SELFOVERLAP>
1050.897

> <PUBCHEM_SHAPE_VOLUME>
265.3

> <PUBCHEM_COORDINATE_TYPE>
2
5
10

$$$$
