91864462
  -OEChem-08302003173D

 70 73  0     1  0  0  0  0  0999 V2000
   -1.0683    1.6708    0.3101 O   0  0  0  0  0  0  0  0  0  0  0  0
   -3.8234   -2.9426   -1.0719 O   0  0  0  0  0  0  0  0  0  0  0  0
   -2.7249   -3.2791    1.0450 O   0  0  0  0  0  0  0  0  0  0  0  0
   -0.2747   -2.0341    1.7508 O   0  0  0  0  0  0  0  0  0  0  0  0
    2.0641   -2.5711   -0.0185 O   0  0  0  0  0  0  0  0  0  0  0  0
    4.8212    1.1949    0.8787 O   0  0  0  0  0  0  0  0  0  0  0  0
    4.4815   -1.5419    0.6690 O   0  0  0  0  0  0  0  0  0  0  0  0
   -1.5460    3.8674    0.8077 O   0  0  0  0  0  0  0  0  0  0  0  0
   -0.0410    2.5023   -1.7656 C   0  0  1  0  0  0  0  0  0  0  0  0
   -0.8878    1.5303   -2.6428 C   0  0  2  0  0  0  0  0  0  0  0  0
    0.1664    2.0666   -0.2858 C   0  0  2  0  0  0  0  0  0  0  0  0
   -0.3179    0.1031   -2.7654 C   0  0  0  0  0  0  0  0  0  0  0  0
    1.2536    1.0312   -0.0323 C   0  0  0  0  0  0  0  0  0  0  0  0
   -0.8749   -0.8117   -1.6948 C   0  0  0  0  0  0  0  0  0  0  0  0
    1.2749    2.9420   -2.4244 C   0  0  0  0  0  0  0  0  0  0  0  0
    1.0704   -0.3678   -0.1253 C   0  0  0  0  0  0  0  0  0  0  0  0
   -0.2216   -1.0026   -0.4470 C   0  0  0  0  0  0  0  0  0  0  0  0
   -1.1237    2.1050   -4.0490 C   0  0  0  0  0  0  0  0  0  0  0  0
   -2.1062   -1.4504   -1.9540 C   0  0  0  0  0  0  0  0  0  0  0  0
    2.5319    1.5232    0.3158 C   0  0  0  0  0  0  0  0  0  0  0  0
   -0.8230   -1.8424    0.5175 C   0  0  0  0  0  0  0  0  0  0  0  0
    2.1785   -1.2115    0.1165 C   0  0  0  0  0  0  0  0  0  0  0  0
   -2.6504   -2.2598   -0.9812 C   0  0  0  0  0  0  0  0  0  0  0  0
   -2.0256   -2.4505    0.2230 C   0  0  0  0  0  0  0  0  0  0  0  0
    3.6078    0.6699    0.5531 C   0  0  0  0  0  0  0  0  0  0  0  0
    3.4317   -0.7006    0.4502 C   0  0  0  0  0  0  0  0  0  0  0  0
   -1.8313    2.6784    0.8207 C   0  0  0  0  0  0  0  0  0  0  0  0
   -3.8644   -3.5885    0.2169 C   0  0  0  0  0  0  0  0  0  0  0  0
   -3.0809    2.1103    1.4118 C   0  0  0  0  0  0  0  0  0  0  0  0
   -0.6764   -1.1370    2.7838 C   0  0  0  0  0  0  0  0  0  0  0  0
    2.3481   -3.1120   -1.3030 C   0  0  0  0  0  0  0  0  0  0  0  0
    5.7066    1.4979   -0.1981 C   0  0  0  0  0  0  0  0  0  0  0  0
    4.6796   -1.9953    2.0064 C   0  0  0  0  0  0  0  0  0  0  0  0
   -4.0272    1.3779    0.5074 C   0  0  0  0  0  0  0  0  0  0  0  0
   -3.2651    2.3374    2.7255 C   0  0  0  0  0  0  0  0  0  0  0  0
   -2.3613    3.0906    3.6493 C   0  0  0  0  0  0  0  0  0  0  0  0
   -0.6541    3.4151   -1.7113 H   0  0  0  0  0  0  0  0  0  0  0  0
   -1.8852    1.4772   -2.1835 H   0  0  0  0  0  0  0  0  0  0  0  0
    0.5122    2.9636    0.2486 H   0  0  0  0  0  0  0  0  0  0  0  0
    0.7769    0.0943   -2.7655 H   0  0  0  0  0  0  0  0  0  0  0  0
   -0.5902   -0.3321   -3.7371 H   0  0  0  0  0  0  0  0  0  0  0  0
    1.9302    2.0941   -2.6436 H   0  0  0  0  0  0  0  0  0  0  0  0
    1.8193    3.6374   -1.7764 H   0  0  0  0  0  0  0  0  0  0  0  0
    1.0918    3.4743   -3.3628 H   0  0  0  0  0  0  0  0  0  0  0  0
   -1.8838    1.5187   -4.5776 H   0  0  0  0  0  0  0  0  0  0  0  0
   -0.2124    2.0840   -4.6554 H   0  0  0  0  0  0  0  0  0  0  0  0
   -1.4838    3.1377   -3.9967 H   0  0  0  0  0  0  0  0  0  0  0  0
   -2.6225   -1.3042   -2.8979 H   0  0  0  0  0  0  0  0  0  0  0  0
    2.6951    2.5967    0.3989 H   0  0  0  0  0  0  0  0  0  0  0  0
   -4.7743   -3.2718    0.7395 H   0  0  0  0  0  0  0  0  0  0  0  0
   -3.9043   -4.6733    0.0652 H   0  0  0  0  0  0  0  0  0  0  0  0
   -0.1866   -1.4442    3.7119 H   0  0  0  0  0  0  0  0  0  0  0  0
   -1.7603   -1.1762    2.9324 H   0  0  0  0  0  0  0  0  0  0  0  0
   -0.3682   -0.1134    2.5513 H   0  0  0  0  0  0  0  0  0  0  0  0
    2.1183   -4.1809   -1.2822 H   0  0  0  0  0  0  0  0  0  0  0  0
    3.4086   -2.9903   -1.5447 H   0  0  0  0  0  0  0  0  0  0  0  0
    1.7348   -2.6409   -2.0773 H   0  0  0  0  0  0  0  0  0  0  0  0
    6.6309    1.9035    0.2223 H   0  0  0  0  0  0  0  0  0  0  0  0
    5.2630    2.2493   -0.8592 H   0  0  0  0  0  0  0  0  0  0  0  0
    5.9473    0.5933   -0.7653 H   0  0  0  0  0  0  0  0  0  0  0  0
    3.8042   -2.5498    2.3592 H   0  0  0  0  0  0  0  0  0  0  0  0
    4.8828   -1.1512    2.6729 H   0  0  0  0  0  0  0  0  0  0  0  0
    5.5443   -2.6644    2.0164 H   0  0  0  0  0  0  0  0  0  0  0  0
   -4.2834    1.9979   -0.3575 H   0  0  0  0  0  0  0  0  0  0  0  0
   -3.5721    0.4515    0.1487 H   0  0  0  0  0  0  0  0  0  0  0  0
   -4.9576    1.1187    1.0228 H   0  0  0  0  0  0  0  0  0  0  0  0
   -4.1761    1.9570    3.1839 H   0  0  0  0  0  0  0  0  0  0  0  0
   -2.2755    2.5412    4.5930 H   0  0  0  0  0  0  0  0  0  0  0  0
   -2.7872    4.0740    3.8698 H   0  0  0  0  0  0  0  0  0  0  0  0
   -1.3450    3.2220    3.2707 H   0  0  0  0  0  0  0  0  0  0  0  0
  1 11  1  0  0  0  0
  1 27  1  0  0  0  0
  2 23  1  0  0  0  0
  2 28  1  0  0  0  0
  3 24  1  0  0  0  0
  3 28  1  0  0  0  0
  4 21  1  0  0  0  0
  4 30  1  0  0  0  0
  5 22  1  0  0  0  0
  5 31  1  0  0  0  0
  6 25  1  0  0  0  0
  6 32  1  0  0  0  0
  7 26  1  0  0  0  0
  7 33  1  0  0  0  0
  8 27  2  0  0  0  0
  9 10  1  0  0  0  0
  9 11  1  0  0  0  0
  9 15  1  0  0  0  0
  9 37  1  0  0  0  0
 10 12  1  0  0  0  0
 10 18  1  0  0  0  0
 10 38  1  0  0  0  0
 11 13  1  0  0  0  0
 11 39  1  0  0  0  0
 12 14  1  0  0  0  0
 12 40  1  0  0  0  0
 12 41  1  0  0  0  0
 13 16  1  0  0  0  0
 13 20  2  0  0  0  0
 14 17  1  0  0  0  0
 14 19  2  0  0  0  0
 15 42  1  0  0  0  0
 15 43  1  0  0  0  0
 15 44  1  0  0  0  0
 16 17  1  0  0  0  0
 16 22  2  0  0  0  0
 17 21  2  0  0  0  0
 18 45  1  0  0  0  0
 18 46  1  0  0  0  0
 18 47  1  0  0  0  0
 19 23  1  0  0  0  0
 19 48  1  0  0  0  0
 20 25  1  0  0  0  0
 20 49  1  0  0  0  0
 21 24  1  0  0  0  0
 22 26  1  0  0  0  0
 23 24  2  0  0  0  0
 25 26  2  0  0  0  0
 27 29  1  0  0  0  0
 28 50  1  0  0  0  0
 28 51  1  0  0  0  0
 29 34  1  0  0  0  0
 29 35  2  0  0  0  0
 30 52  1  0  0  0  0
 30 53  1  0  0  0  0
 30 54  1  0  0  0  0
 31 55  1  0  0  0  0
 31 56  1  0  0  0  0
 31 57  1  0  0  0  0
 32 58  1  0  0  0  0
 32 59  1  0  0  0  0
 32 60  1  0  0  0  0
 33 61  1  0  0  0  0
 33 62  1  0  0  0  0
 33 63  1  0  0  0  0
 34 64  1  0  0  0  0
 34 65  1  0  0  0  0
 34 66  1  0  0  0  0
 35 36  1  0  0  0  0
 35 67  1  0  0  0  0
 36 68  1  0  0  0  0
 36 69  1  0  0  0  0
 36 70  1  0  0  0  0
M  END
> <PUBCHEM_COMPOUND_CID>
91864462

> <PUBCHEM_CONFORMER_RMSD>
1

> <PUBCHEM_CONFORMER_DIVERSEORDER>
1
8
18
6
4
14
13
11
3
16
5
15
12
19
10
20
17
2
9
7

> <PUBCHEM_MMFF94_PARTIAL_CHARGES>
33
1 -0.43
11 0.42
12 0.14
13 -0.14
14 -0.14
19 -0.15
2 -0.36
20 -0.15
21 0.08
22 0.08
23 0.08
24 0.08
25 0.08
26 0.08
27 0.71
28 0.56
29 -0.12
3 -0.36
30 0.28
31 0.28
32 0.28
33 0.28
34 0.14
35 -0.29
36 0.14
4 -0.36
48 0.15
49 0.15
5 -0.36
6 -0.36
67 0.15
7 -0.36
8 -0.57

> <PUBCHEM_EFFECTIVE_ROTOR_COUNT>
8.4

> <PUBCHEM_PHARMACOPHORE_FEATURES>
12
1 2 acceptor
1 3 acceptor
1 34 hydrophobe
1 36 hydrophobe
1 4 acceptor
1 5 acceptor
1 6 acceptor
1 7 acceptor
1 8 acceptor
5 2 3 23 24 28 rings
6 13 16 20 22 25 26 rings
6 14 17 19 21 23 24 rings

> <PUBCHEM_HEAVY_ATOM_COUNT>
36

> <PUBCHEM_ATOM_DEF_STEREO_COUNT>
3

> <PUBCHEM_ATOM_UDEF_STEREO_COUNT>
0

> <PUBCHEM_BOND_DEF_STEREO_COUNT>
1

> <PUBCHEM_BOND_UDEF_STEREO_COUNT>
0

> <PUBCHEM_ISOTOPIC_ATOM_COUNT>
0

> <PUBCHEM_COMPONENT_COUNT>
1

> <PUBCHEM_CACTVS_TAUTO_COUNT>
1

> <PUBCHEM_CONFORMER_ID>
0579BD8E00000001

> <PUBCHEM_MMFF94_ENERGY>
156.1772

> <PUBCHEM_FEATURE_SELFOVERLAP>
61.066

> <PUBCHEM_SHAPE_FINGERPRINT>
11115154 58 17843940728988574103
11578080 2 16627753264134586797
12156800 1 17842313437976736693
12633257 1 18265892463305383426
12788726 201 18201154468054453498
131258 38 16665474321492220643
13140716 1 18268978827146894674
133893 2 16880495940479856501
13583140 156 16558455440578513202
14028597 1 17615158866910819077
140371 6 18117847822313948210
14955137 171 17908430504065989398
15324884 4 17681001681921048300
21927370 108 17895481431160927042
23352939 185 17752197546710759572
23419403 2 17762862813679304013
23559900 14 17102545694265725943
238 59 17106749783899972996
3380486 145 17968093105971405356
3380486 77 17315888191530473450
3493558 16 18343866593683714027
469060 322 17749941271741845412
550186 7 17418101983520001537

> <PUBCHEM_SHAPE_MULTIPOLES>
693.91
7.49
4.91
3.3
8.18
0.77
0.85
1.19
-3.97
-3.8
-0.55
-2.28
-2.62
-2.35

> <PUBCHEM_SHAPE_SELFOVERLAP>
1492.208

> <PUBCHEM_SHAPE_VOLUME>
383.5

> <PUBCHEM_COORDINATE_TYPE>
2
5
10

$$$$
