9548665
  -OEChem-08302003033D

 84 87  0     1  0  0  0  0  0999 V2000
   -0.2552    0.7355    0.6080 C   0  0  2  0  0  0  0  0  0  0  0  0
   -0.9692   -0.6645    0.6255 C   0  0  1  0  0  0  0  0  0  0  0  0
    1.2812    0.5260    0.7309 C   0  0  1  0  0  0  0  0  0  0  0  0
    1.8186   -0.3675   -0.4399 C   0  0  1  0  0  0  0  0  0  0  0  0
    3.3721   -0.6613   -0.2779 C   0  0  2  0  0  0  0  0  0  0  0  0
   -2.4570   -0.2433    0.7325 C   0  0  2  0  0  0  0  0  0  0  0  0
    4.1015    0.7374   -0.2416 C   0  0  1  0  0  0  0  0  0  0  0  0
   -0.5745   -1.4292   -0.6434 C   0  0  0  0  0  0  0  0  0  0  0  0
   -0.9505    1.4283    1.7942 C   0  0  0  0  0  0  0  0  0  0  0  0
    0.9515   -1.6322   -0.7215 C   0  0  0  0  0  0  0  0  0  0  0  0
    2.0801    1.8372    0.8267 C   0  0  0  0  0  0  0  0  0  0  0  0
   -2.4190    0.9494    1.7227 C   0  0  0  0  0  0  0  0  0  0  0  0
    3.5886    1.6029    0.9286 C   0  0  0  0  0  0  0  0  0  0  0  0
    5.6650    0.7237   -0.4015 C   0  0  0  0  0  0  0  0  0  0  0  0
    3.8840   -1.4573   -1.5072 C   0  0  0  0  0  0  0  0  0  0  0  0
   -0.5753    1.6027   -0.6555 C   0  0  0  0  0  0  0  0  0  0  0  0
   -0.6134   -1.5586    1.8569 C   0  0  0  0  0  0  0  0  0  0  0  0
   -3.4588   -1.3154    1.1470 C   0  0  1  0  0  0  0  0  0  0  0  0
    3.6169   -1.5146    0.9927 C   0  0  0  0  0  0  0  0  0  0  0  0
    6.0533   -0.1718   -1.6042 C   0  0  0  0  0  0  0  0  0  0  0  0
    5.4055   -1.5494   -1.5912 C   0  0  0  0  0  0  0  0  0  0  0  0
    6.1676    2.1545   -0.7361 C   0  0  0  0  0  0  0  0  0  0  0  0
    6.4335    0.2854    0.8591 C   0  0  0  0  0  0  0  0  0  0  0  0
   -4.9059   -0.7858    1.2067 C   0  0  0  0  0  0  0  0  0  0  0  0
   -3.3912   -2.4982    0.1740 C   0  0  0  0  0  0  0  0  0  0  0  0
   -5.4520   -0.1693   -0.0881 C   0  0  0  0  0  0  0  0  0  0  0  0
   -6.8659    0.4028    0.0565 C   0  0  0  0  0  0  0  0  0  0  0  0
   -7.4406    0.9573   -1.2617 C   0  0  0  0  0  0  0  0  0  0  0  0
   -7.4725   -0.0906   -2.3753 C   0  0  0  0  0  0  0  0  0  0  0  0
   -6.6182    2.1659   -1.7169 C   0  0  0  0  0  0  0  0  0  0  0  0
    1.4685    0.0129    1.6787 H   0  0  0  0  0  0  0  0  0  0  0  0
    1.7305    0.2338   -1.3564 H   0  0  0  0  0  0  0  0  0  0  0  0
   -2.7606    0.1276   -0.2518 H   0  0  0  0  0  0  0  0  0  0  0  0
    3.7533    1.2548   -1.1517 H   0  0  0  0  0  0  0  0  0  0  0  0
   -0.9198   -0.9071   -1.5426 H   0  0  0  0  0  0  0  0  0  0  0  0
   -1.0160   -2.4248   -0.6965 H   0  0  0  0  0  0  0  0  0  0  0  0
   -0.8889    2.5212    1.7523 H   0  0  0  0  0  0  0  0  0  0  0  0
   -0.5049    1.1241    2.7485 H   0  0  0  0  0  0  0  0  0  0  0  0
    1.2179   -2.4407   -0.0357 H   0  0  0  0  0  0  0  0  0  0  0  0
    1.1845   -2.0111   -1.7243 H   0  0  0  0  0  0  0  0  0  0  0  0
    1.7497    2.4148    1.6978 H   0  0  0  0  0  0  0  0  0  0  0  0
    1.9041    2.4639   -0.0541 H   0  0  0  0  0  0  0  0  0  0  0  0
   -2.7580    0.6718    2.7271 H   0  0  0  0  0  0  0  0  0  0  0  0
   -3.0711    1.7555    1.3679 H   0  0  0  0  0  0  0  0  0  0  0  0
    4.0714    2.5850    0.9265 H   0  0  0  0  0  0  0  0  0  0  0  0
    3.8271    1.1473    1.8947 H   0  0  0  0  0  0  0  0  0  0  0  0
    3.5168   -0.9840   -2.4276 H   0  0  0  0  0  0  0  0  0  0  0  0
    3.4787   -2.4764   -1.5002 H   0  0  0  0  0  0  0  0  0  0  0  0
   -0.1779    1.1770   -1.5795 H   0  0  0  0  0  0  0  0  0  0  0  0
   -1.6457    1.7580   -0.8153 H   0  0  0  0  0  0  0  0  0  0  0  0
   -0.1571    2.6099   -0.5558 H   0  0  0  0  0  0  0  0  0  0  0  0
    0.4572   -1.7533    1.9530 H   0  0  0  0  0  0  0  0  0  0  0  0
   -0.9340   -1.1136    2.8041 H   0  0  0  0  0  0  0  0  0  0  0  0
   -1.0779   -2.5462    1.7949 H   0  0  0  0  0  0  0  0  0  0  0  0
   -3.2316   -1.6899    2.1526 H   0  0  0  0  0  0  0  0  0  0  0  0
    4.6456   -1.8604    1.0785 H   0  0  0  0  0  0  0  0  0  0  0  0
    3.3818   -0.9842    1.9177 H   0  0  0  0  0  0  0  0  0  0  0  0
    3.0160   -2.4282    0.9880 H   0  0  0  0  0  0  0  0  0  0  0  0
    7.1434   -0.2895   -1.6535 H   0  0  0  0  0  0  0  0  0  0  0  0
    5.7607    0.3286   -2.5377 H   0  0  0  0  0  0  0  0  0  0  0  0
    5.8057   -2.1521   -0.7700 H   0  0  0  0  0  0  0  0  0  0  0  0
    5.6774   -2.0783   -2.5128 H   0  0  0  0  0  0  0  0  0  0  0  0
    6.0680    2.8344    0.1158 H   0  0  0  0  0  0  0  0  0  0  0  0
    5.6157    2.5855   -1.5789 H   0  0  0  0  0  0  0  0  0  0  0  0
    7.2289    2.1435   -1.0124 H   0  0  0  0  0  0  0  0  0  0  0  0
    6.3219   -0.7736    1.0861 H   0  0  0  0  0  0  0  0  0  0  0  0
    6.1290    0.8579    1.7406 H   0  0  0  0  0  0  0  0  0  0  0  0
    7.5106    0.4505    0.7302 H   0  0  0  0  0  0  0  0  0  0  0  0
   -5.5720   -1.6026    1.5151 H   0  0  0  0  0  0  0  0  0  0  0  0
   -4.9771   -0.0361    2.0047 H   0  0  0  0  0  0  0  0  0  0  0  0
   -4.2925   -3.1171    0.2632 H   0  0  0  0  0  0  0  0  0  0  0  0
   -2.5663   -3.1752    0.4007 H   0  0  0  0  0  0  0  0  0  0  0  0
   -3.3294   -2.1770   -0.8707 H   0  0  0  0  0  0  0  0  0  0  0  0
   -4.7884    0.6363   -0.4110 H   0  0  0  0  0  0  0  0  0  0  0  0
   -5.4365   -0.9382   -0.8660 H   0  0  0  0  0  0  0  0  0  0  0  0
   -6.8666    1.1913    0.8192 H   0  0  0  0  0  0  0  0  0  0  0  0
   -7.5328   -0.3871    0.4243 H   0  0  0  0  0  0  0  0  0  0  0  0
   -8.4676    1.2898   -1.0656 H   0  0  0  0  0  0  0  0  0  0  0  0
   -7.9707   -1.0047   -2.0363 H   0  0  0  0  0  0  0  0  0  0  0  0
   -8.0316    0.2920   -3.2365 H   0  0  0  0  0  0  0  0  0  0  0  0
   -6.4717   -0.3531   -2.7322 H   0  0  0  0  0  0  0  0  0  0  0  0
   -6.5262    2.9049   -0.9140 H   0  0  0  0  0  0  0  0  0  0  0  0
   -7.1110    2.6587   -2.5625 H   0  0  0  0  0  0  0  0  0  0  0  0
   -5.6127    1.8879   -2.0475 H   0  0  0  0  0  0  0  0  0  0  0  0
  1  2  1  0  0  0  0
  1  3  1  0  0  0  0
  1  9  1  0  0  0  0
  1 16  1  0  0  0  0
  2  6  1  0  0  0  0
  2  8  1  0  0  0  0
  2 17  1  0  0  0  0
  3  4  1  0  0  0  0
  3 11  1  0  0  0  0
  3 31  1  0  0  0  0
  4  5  1  0  0  0  0
  4 10  1  0  0  0  0
  4 32  1  0  0  0  0
  5  7  1  0  0  0  0
  5 15  1  0  0  0  0
  5 19  1  0  0  0  0
  6 12  1  0  0  0  0
  6 18  1  0  0  0  0
  6 33  1  0  0  0  0
  7 13  1  0  0  0  0
  7 14  1  0  0  0  0
  7 34  1  0  0  0  0
  8 10  1  0  0  0  0
  8 35  1  0  0  0  0
  8 36  1  0  0  0  0
  9 12  1  0  0  0  0
  9 37  1  0  0  0  0
  9 38  1  0  0  0  0
 10 39  1  0  0  0  0
 10 40  1  0  0  0  0
 11 13  1  0  0  0  0
 11 41  1  0  0  0  0
 11 42  1  0  0  0  0
 12 43  1  0  0  0  0
 12 44  1  0  0  0  0
 13 45  1  0  0  0  0
 13 46  1  0  0  0  0
 14 20  1  0  0  0  0
 14 22  1  0  0  0  0
 14 23  1  0  0  0  0
 15 21  1  0  0  0  0
 15 47  1  0  0  0  0
 15 48  1  0  0  0  0
 16 49  1  0  0  0  0
 16 50  1  0  0  0  0
 16 51  1  0  0  0  0
 17 52  1  0  0  0  0
 17 53  1  0  0  0  0
 17 54  1  0  0  0  0
 18 24  1  0  0  0  0
 18 25  1  0  0  0  0
 18 55  1  0  0  0  0
 19 56  1  0  0  0  0
 19 57  1  0  0  0  0
 19 58  1  0  0  0  0
 20 21  1  0  0  0  0
 20 59  1  0  0  0  0
 20 60  1  0  0  0  0
 21 61  1  0  0  0  0
 21 62  1  0  0  0  0
 22 63  1  0  0  0  0
 22 64  1  0  0  0  0
 22 65  1  0  0  0  0
 23 66  1  0  0  0  0
 23 67  1  0  0  0  0
 23 68  1  0  0  0  0
 24 26  1  0  0  0  0
 24 69  1  0  0  0  0
 24 70  1  0  0  0  0
 25 71  1  0  0  0  0
 25 72  1  0  0  0  0
 25 73  1  0  0  0  0
 26 27  1  0  0  0  0
 26 74  1  0  0  0  0
 26 75  1  0  0  0  0
 27 28  1  0  0  0  0
 27 76  1  0  0  0  0
 27 77  1  0  0  0  0
 28 29  1  0  0  0  0
 28 30  1  0  0  0  0
 28 78  1  0  0  0  0
 29 79  1  0  0  0  0
 29 80  1  0  0  0  0
 29 81  1  0  0  0  0
 30 82  1  0  0  0  0
 30 83  1  0  0  0  0
 30 84  1  0  0  0  0
M  END
> <PUBCHEM_COMPOUND_CID>
9548665

> <PUBCHEM_CONFORMER_RMSD>
0.8

> <PUBCHEM_CONFORMER_DIVERSEORDER>
1
4
2
5
3

> <PUBCHEM_MMFF94_PARTIAL_CHARGES>
0

> <PUBCHEM_EFFECTIVE_ROTOR_COUNT>
7.2

> <PUBCHEM_PHARMACOPHORE_FEATURES>
8
1 25 hydrophobe
3 14 22 23 hydrophobe
3 28 29 30 hydrophobe
5 1 2 6 9 12 rings
5 18 24 26 27 28 hydrophobe
6 1 2 3 4 8 10 rings
6 3 4 5 7 11 13 rings
6 5 7 14 15 20 21 rings

> <PUBCHEM_HEAVY_ATOM_COUNT>
30

> <PUBCHEM_ATOM_DEF_STEREO_COUNT>
8

> <PUBCHEM_ATOM_UDEF_STEREO_COUNT>
0

> <PUBCHEM_BOND_DEF_STEREO_COUNT>
0

> <PUBCHEM_BOND_UDEF_STEREO_COUNT>
0

> <PUBCHEM_ISOTOPIC_ATOM_COUNT>
0

> <PUBCHEM_COMPONENT_COUNT>
1

> <PUBCHEM_CACTVS_TAUTO_COUNT>
1

> <PUBCHEM_CONFORMER_ID>
0091B37900000001

> <PUBCHEM_MMFF94_ENERGY>
125.7951

> <PUBCHEM_FEATURE_SELFOVERLAP>
40.686

> <PUBCHEM_SHAPE_FINGERPRINT>
10066227 112 18259703419626685301
10554248 39 18342182150354414284
10835480 77 18339645650033522752
11456790 92 13695582269943305356
11475781 23 17967532350481787551
11796584 16 18335140924808242466
11963148 33 13183019588548790893
12011746 2 18342748428870462256
12838862 33 18059850710675007008
13533116 47 17489596632236851686
13782708 43 12895077301401229021
13811026 1 18341049636129408814
13914758 101 17603584101804105920
14028597 1 13912595052891298597
14294032 229 16733819762221909813
15082195 135 18411987996145534092
15131766 46 17535478342363973372
15142383 8 18113613487276571740
15183329 4 18202560666823413757
15196674 1 18058747835739178402
15238133 3 16153429466950212205
16728433 281 17896043139463469765
18769570 83 16805324388369035085
20028762 73 16845576383174062391
20511986 3 18334291006751750890
21033648 29 18041554849034343048
21150785 3 16271924930366093009
21267235 1 17987821648062427014
21279426 13 18341617035774690819
21424621 283 17022902337689806761
21521239 73 17703787020449668719
21781055 127 15357697453933690140
21859007 373 18261943094326031909
22122407 14 14779844740946677853
2215653 11 18273218598900405491
22956985 138 14618859672413782868
23522609 53 16485599635126015808
23559900 14 18201722906912632961
23569914 152 17476634283488177607
23569943 247 12749032423670106156
23576562 1 18265329685477598173
3009799 131 18412262831228437817
350125 39 18130237042121197656
3633792 109 18060421292178385617
4015057 19 17845936333738892913
474113 269 18264763260859476858
5104073 3 17917164797267713754
5385378 56 13768197277241729561
54039377 194 16343416311536283759
59755656 215 18410291393757654125
6328613 192 18113336414610048349

> <PUBCHEM_SHAPE_MULTIPOLES>
617.39
18.98
2.2
1.87
16.49
0.01
0.29
5.1
10.96
-0.22
0.11
1.43
0.03
1.93

> <PUBCHEM_SHAPE_SELFOVERLAP>
1268.469

> <PUBCHEM_SHAPE_VOLUME>
355.9

> <PUBCHEM_COORDINATE_TYPE>
2
5
10

$$$$
