163067
  -OEChem-08302003183D

 66 71  0     1  0  0  0  0  0999 V2000
    2.4404    3.2454   -0.8854 O   0  0  0  0  0  0  0  0  0  0  0  0
   -0.5145    1.7550    0.7705 O   0  0  0  0  0  0  0  0  0  0  0  0
    5.0485   -0.2627    1.7330 O   0  0  0  0  0  0  0  0  0  0  0  0
    4.4264   -2.3039    0.6166 O   0  0  0  0  0  0  0  0  0  0  0  0
    1.9868   -2.6334   -0.7878 O   0  0  0  0  0  0  0  0  0  0  0  0
   -0.5838   -2.2885    0.6791 O   0  0  0  0  0  0  0  0  0  0  0  0
   -3.5632   -1.2077   -2.6904 O   0  0  0  0  0  0  0  0  0  0  0  0
   -2.9993   -2.5706   -0.7863 O   0  0  0  0  0  0  0  0  0  0  0  0
    0.0049    0.7279    2.7641 O   0  0  0  0  0  0  0  0  0  0  0  0
    1.0412    3.1051   -0.6037 C   0  0  1  0  0  0  0  0  0  0  0  0
    0.2959    2.7405   -1.9341 C   0  0  2  0  0  0  0  0  0  0  0  0
    0.8579    2.0877    0.5703 C   0  0  2  0  0  0  0  0  0  0  0  0
    0.6652    1.3505   -2.5048 C   0  0  0  0  0  0  0  0  0  0  0  0
    1.7320    0.8358    0.5136 C   0  0  0  0  0  0  0  0  0  0  0  0
   -0.2518    0.2608   -1.9890 C   0  0  0  0  0  0  0  0  0  0  0  0
    0.5633    4.4921   -0.1100 C   0  0  0  0  0  0  0  0  0  0  0  0
    1.3640   -0.3729   -0.1473 C   0  0  0  0  0  0  0  0  0  0  0  0
    0.5516    3.7785   -3.0466 C   0  0  0  0  0  0  0  0  0  0  0  0
    0.0855   -0.5369   -0.8623 C   0  0  0  0  0  0  0  0  0  0  0  0
    2.9845    0.9107    1.1679 C   0  0  0  0  0  0  0  0  0  0  0  0
    2.2589   -1.4686   -0.1329 C   0  0  0  0  0  0  0  0  0  0  0  0
   -1.4859    0.0716   -2.6448 C   0  0  0  0  0  0  0  0  0  0  0  0
   -0.8264   -1.5201   -0.4198 C   0  0  0  0  0  0  0  0  0  0  0  0
    3.8205   -0.1847    1.1530 C   0  0  0  0  0  0  0  0  0  0  0  0
    3.4668   -1.3447    0.5191 C   0  0  0  0  0  0  0  0  0  0  0  0
   -2.3424   -0.8999   -2.1751 C   0  0  0  0  0  0  0  0  0  0  0  0
   -2.0213   -1.6751   -1.0915 C   0  0  0  0  0  0  0  0  0  0  0  0
   -0.7984    1.0733    1.9116 C   0  0  0  0  0  0  0  0  0  0  0  0
    5.4274   -1.6112    1.3900 C   0  0  0  0  0  0  0  0  0  0  0  0
   -3.9737   -2.2705   -1.8061 C   0  0  0  0  0  0  0  0  0  0  0  0
   -2.2528    0.7881    2.0000 C   0  0  0  0  0  0  0  0  0  0  0  0
    2.4283   -2.7335   -2.1397 C   0  0  0  0  0  0  0  0  0  0  0  0
   -0.5238   -3.6996    0.4822 C   0  0  0  0  0  0  0  0  0  0  0  0
   -2.6707   -0.3480    2.6623 C   0  0  0  0  0  0  0  0  0  0  0  0
   -3.1414    1.6678    1.4167 C   0  0  0  0  0  0  0  0  0  0  0  0
   -4.0371   -0.6161    2.7449 C   0  0  0  0  0  0  0  0  0  0  0  0
   -4.5078    1.3999    1.4993 C   0  0  0  0  0  0  0  0  0  0  0  0
   -4.9556    0.2579    2.1635 C   0  0  0  0  0  0  0  0  0  0  0  0
   -0.7842    2.7680   -1.7326 H   0  0  0  0  0  0  0  0  0  0  0  0
    1.1710    2.6202    1.4817 H   0  0  0  0  0  0  0  0  0  0  0  0
    1.7171    1.0924   -2.3513 H   0  0  0  0  0  0  0  0  0  0  0  0
    0.5596    1.3502   -3.5990 H   0  0  0  0  0  0  0  0  0  0  0  0
   -0.5223    4.5189    0.0278 H   0  0  0  0  0  0  0  0  0  0  0  0
    1.0365    4.7488    0.8454 H   0  0  0  0  0  0  0  0  0  0  0  0
    0.8591    5.2942   -0.7932 H   0  0  0  0  0  0  0  0  0  0  0  0
    0.0190    3.5014   -3.9636 H   0  0  0  0  0  0  0  0  0  0  0  0
    0.1847    4.7706   -2.7704 H   0  0  0  0  0  0  0  0  0  0  0  0
    1.6164    3.8563   -3.2891 H   0  0  0  0  0  0  0  0  0  0  0  0
    2.7802    2.4138   -1.2510 H   0  0  0  0  0  0  0  0  0  0  0  0
    3.2943    1.8191    1.6770 H   0  0  0  0  0  0  0  0  0  0  0  0
   -1.7620    0.6800   -3.5006 H   0  0  0  0  0  0  0  0  0  0  0  0
    6.3576   -1.5784    0.8114 H   0  0  0  0  0  0  0  0  0  0  0  0
    5.6069   -2.1718    2.3147 H   0  0  0  0  0  0  0  0  0  0  0  0
   -4.9119   -1.9796   -1.3197 H   0  0  0  0  0  0  0  0  0  0  0  0
   -4.1499   -3.1744   -2.4006 H   0  0  0  0  0  0  0  0  0  0  0  0
    3.5218   -2.7339   -2.1848 H   0  0  0  0  0  0  0  0  0  0  0  0
    2.0301   -1.9146   -2.7466 H   0  0  0  0  0  0  0  0  0  0  0  0
    2.0624   -3.6793   -2.5488 H   0  0  0  0  0  0  0  0  0  0  0  0
   -0.3172   -3.9747   -0.5579 H   0  0  0  0  0  0  0  0  0  0  0  0
    0.2742   -4.0995    1.1145 H   0  0  0  0  0  0  0  0  0  0  0  0
   -1.4692   -4.1489    0.8002 H   0  0  0  0  0  0  0  0  0  0  0  0
   -1.9651   -1.0377    3.1160 H   0  0  0  0  0  0  0  0  0  0  0  0
   -2.8193    2.5695    0.9044 H   0  0  0  0  0  0  0  0  0  0  0  0
   -4.3857   -1.5061    3.2605 H   0  0  0  0  0  0  0  0  0  0  0  0
   -5.2234    2.0812    1.0485 H   0  0  0  0  0  0  0  0  0  0  0  0
   -6.0195    0.0491    2.2275 H   0  0  0  0  0  0  0  0  0  0  0  0
  1 10  1  0  0  0  0
  1 49  1  0  0  0  0
  2 12  1  0  0  0  0
  2 28  1  0  0  0  0
  3 24  1  0  0  0  0
  3 29  1  0  0  0  0
  4 25  1  0  0  0  0
  4 29  1  0  0  0  0
  5 21  1  0  0  0  0
  5 32  1  0  0  0  0
  6 23  1  0  0  0  0
  6 33  1  0  0  0  0
  7 26  1  0  0  0  0
  7 30  1  0  0  0  0
  8 27  1  0  0  0  0
  8 30  1  0  0  0  0
  9 28  2  0  0  0  0
 10 11  1  0  0  0  0
 10 12  1  0  0  0  0
 10 16  1  0  0  0  0
 11 13  1  0  0  0  0
 11 18  1  0  0  0  0
 11 39  1  0  0  0  0
 12 14  1  0  0  0  0
 12 40  1  0  0  0  0
 13 15  1  0  0  0  0
 13 41  1  0  0  0  0
 13 42  1  0  0  0  0
 14 17  1  0  0  0  0
 14 20  2  0  0  0  0
 15 19  1  0  0  0  0
 15 22  2  0  0  0  0
 16 43  1  0  0  0  0
 16 44  1  0  0  0  0
 16 45  1  0  0  0  0
 17 19  1  0  0  0  0
 17 21  2  0  0  0  0
 18 46  1  0  0  0  0
 18 47  1  0  0  0  0
 18 48  1  0  0  0  0
 19 23  2  0  0  0  0
 20 24  1  0  0  0  0
 20 50  1  0  0  0  0
 21 25  1  0  0  0  0
 22 26  1  0  0  0  0
 22 51  1  0  0  0  0
 23 27  1  0  0  0  0
 24 25  2  0  0  0  0
 26 27  2  0  0  0  0
 28 31  1  0  0  0  0
 29 52  1  0  0  0  0
 29 53  1  0  0  0  0
 30 54  1  0  0  0  0
 30 55  1  0  0  0  0
 31 34  2  0  0  0  0
 31 35  1  0  0  0  0
 32 56  1  0  0  0  0
 32 57  1  0  0  0  0
 32 58  1  0  0  0  0
 33 59  1  0  0  0  0
 33 60  1  0  0  0  0
 33 61  1  0  0  0  0
 34 36  1  0  0  0  0
 34 62  1  0  0  0  0
 35 37  2  0  0  0  0
 35 63  1  0  0  0  0
 36 38  2  0  0  0  0
 36 64  1  0  0  0  0
 37 38  1  0  0  0  0
 37 65  1  0  0  0  0
 38 66  1  0  0  0  0
M  END
> <PUBCHEM_COMPOUND_CID>
163067

> <PUBCHEM_CONFORMER_RMSD>
1

> <PUBCHEM_CONFORMER_DIVERSEORDER>
1
2
3
4
6
7
5

> <PUBCHEM_MMFF94_PARTIAL_CHARGES>
41
1 -0.68
10 0.28
12 0.42
13 0.14
14 -0.14
15 -0.14
2 -0.43
20 -0.15
21 0.08
22 -0.15
23 0.08
24 0.08
25 0.08
26 0.08
27 0.08
28 0.63
29 0.56
3 -0.36
30 0.56
31 0.09
32 0.28
33 0.28
34 -0.15
35 -0.15
36 -0.15
37 -0.15
38 -0.15
4 -0.36
49 0.4
5 -0.36
50 0.15
51 0.15
6 -0.36
62 0.15
63 0.15
64 0.15
65 0.15
66 0.15
7 -0.36
8 -0.36
9 -0.57

> <PUBCHEM_EFFECTIVE_ROTOR_COUNT>
7

> <PUBCHEM_PHARMACOPHORE_FEATURES>
14
1 1 acceptor
1 1 donor
1 3 acceptor
1 4 acceptor
1 5 acceptor
1 6 acceptor
1 7 acceptor
1 8 acceptor
1 9 acceptor
5 3 4 24 25 29 rings
5 7 8 26 27 30 rings
6 14 17 20 21 24 25 rings
6 15 19 22 23 26 27 rings
6 31 34 35 36 37 38 rings

> <PUBCHEM_HEAVY_ATOM_COUNT>
38

> <PUBCHEM_ATOM_DEF_STEREO_COUNT>
3

> <PUBCHEM_ATOM_UDEF_STEREO_COUNT>
0

> <PUBCHEM_BOND_DEF_STEREO_COUNT>
0

> <PUBCHEM_BOND_UDEF_STEREO_COUNT>
0

> <PUBCHEM_ISOTOPIC_ATOM_COUNT>
0

> <PUBCHEM_COMPONENT_COUNT>
1

> <PUBCHEM_CACTVS_TAUTO_COUNT>
1

> <PUBCHEM_CONFORMER_ID>
00027CFB00000001

> <PUBCHEM_MMFF94_ENERGY>
154.8842

> <PUBCHEM_FEATURE_SELFOVERLAP>
71.363

> <PUBCHEM_SHAPE_FINGERPRINT>
11421498 54 16312228869429284243
11578080 2 14012323712741992198
12156800 1 16701750465398379997
12160290 23 17683804311506314300
12422481 6 17987231141018780834
12608794 3 18334566949736497539
12788726 201 17058362836935386515
133893 2 18116155664969910596
14028597 1 17624700445985803601
140371 6 18198898291748610846
14068700 675 17486460919173403463
15219462 58 17696473257874438401
15324884 4 17838073514933901801
17980427 23 18201156658587695656
21033648 29 17914345580080348497
23419403 2 17458064906051999717
25222932 49 17257699953620650403
3052486 1 17416981697161645633
3380486 145 18339912706599071588
3380486 77 17901062496053778186
3493558 16 17917982880725393423
35225 105 17693102859603984334
469060 322 18266437863890421418
513532 50 14565370880412253987
59554788 62 18270112405885842186

> <PUBCHEM_SHAPE_MULTIPOLES>
729.2
7.7
4.38
3.34
0.8
2.64
-0.81
-4.22
5.43
1.69
-2.28
-2.48
0.47
-1.88

> <PUBCHEM_SHAPE_SELFOVERLAP>
1633.781

> <PUBCHEM_SHAPE_VOLUME>
383.3

> <PUBCHEM_COORDINATE_TYPE>
2
5
10

$$$$
