13844288
  -OEChem-08302003213D

 45 48  0     1  0  0  0  0  0999 V2000
    1.8420   -2.5874   -1.9076 O   0  0  0  0  0  0  0  0  0  0  0  0
    3.2068    2.7801    0.9936 O   0  0  0  0  0  0  0  0  0  0  0  0
    4.3492    1.7359   -0.8524 O   0  0  0  0  0  0  0  0  0  0  0  0
   -2.9958    1.7160   -1.8543 O   0  0  0  0  0  0  0  0  0  0  0  0
   -5.0637    1.8221   -0.0008 O   0  0  0  0  0  0  0  0  0  0  0  0
   -0.2906   -2.3280    1.0343 C   0  0  1  0  0  0  0  0  0  0  0  0
   -0.2083   -0.8008    1.2992 C   0  0  1  0  0  0  0  0  0  0  0  0
   -0.0891   -2.6414   -0.4616 C   0  0  1  0  0  0  0  0  0  0  0  0
    1.0246   -0.1746    0.6710 C   0  0  0  0  0  0  0  0  0  0  0  0
    1.6998   -0.7767   -0.4168 C   0  0  0  0  0  0  0  0  0  0  0  0
    1.2161   -2.0595   -0.9916 C   0  0  0  0  0  0  0  0  0  0  0  0
    0.6887   -3.0897    1.9465 C   0  0  0  0  0  0  0  0  0  0  0  0
   -1.5153   -0.0935    0.9458 C   0  0  0  0  0  0  0  0  0  0  0  0
   -0.1774   -4.1389   -0.7654 C   0  0  0  0  0  0  0  0  0  0  0  0
    1.5010    1.0457    1.1882 C   0  0  0  0  0  0  0  0  0  0  0  0
    2.8388   -0.1768   -0.9769 C   0  0  0  0  0  0  0  0  0  0  0  0
    2.6203    1.6120    0.6151 C   0  0  0  0  0  0  0  0  0  0  0  0
    3.2711    1.0165   -0.4369 C   0  0  0  0  0  0  0  0  0  0  0  0
   -1.6622    0.4949   -0.3049 C   0  0  0  0  0  0  0  0  0  0  0  0
   -2.5447   -0.0445    1.8786 C   0  0  0  0  0  0  0  0  0  0  0  0
   -2.8555    1.1414   -0.6273 C   0  0  0  0  0  0  0  0  0  0  0  0
   -3.7379    0.6019    1.5562 C   0  0  0  0  0  0  0  0  0  0  0  0
    4.3041    2.8513    0.0605 C   0  0  0  0  0  0  0  0  0  0  0  0
   -3.8934    1.1947    0.3032 C   0  0  0  0  0  0  0  0  0  0  0  0
   -3.5284    0.8993   -2.8955 C   0  0  0  0  0  0  0  0  0  0  0  0
   -1.2937   -2.6779    1.3176 H   0  0  0  0  0  0  0  0  0  0  0  0
   -0.0822   -0.6716    2.3854 H   0  0  0  0  0  0  0  0  0  0  0  0
   -0.8906   -2.1594   -1.0359 H   0  0  0  0  0  0  0  0  0  0  0  0
    0.5293   -2.8174    2.9956 H   0  0  0  0  0  0  0  0  0  0  0  0
    0.5357   -4.1710    1.8745 H   0  0  0  0  0  0  0  0  0  0  0  0
    1.7340   -2.8792    1.7008 H   0  0  0  0  0  0  0  0  0  0  0  0
   -0.2193   -4.3087   -1.8474 H   0  0  0  0  0  0  0  0  0  0  0  0
    0.6951   -4.6845   -0.3909 H   0  0  0  0  0  0  0  0  0  0  0  0
   -1.0797   -4.5767   -0.3264 H   0  0  0  0  0  0  0  0  0  0  0  0
    1.0026    1.5332    2.0204 H   0  0  0  0  0  0  0  0  0  0  0  0
    3.3736   -0.6203   -1.8102 H   0  0  0  0  0  0  0  0  0  0  0  0
   -0.8773    0.4591   -1.0540 H   0  0  0  0  0  0  0  0  0  0  0  0
   -2.4355   -0.5046    2.8566 H   0  0  0  0  0  0  0  0  0  0  0  0
   -4.5428    0.6394    2.2852 H   0  0  0  0  0  0  0  0  0  0  0  0
    5.2433    2.8816    0.6247 H   0  0  0  0  0  0  0  0  0  0  0  0
    4.2119    3.7764   -0.5199 H   0  0  0  0  0  0  0  0  0  0  0  0
   -4.9853    2.2091   -0.8897 H   0  0  0  0  0  0  0  0  0  0  0  0
   -4.5236    0.5294   -2.6292 H   0  0  0  0  0  0  0  0  0  0  0  0
   -2.8584    0.0583   -3.1006 H   0  0  0  0  0  0  0  0  0  0  0  0
   -3.6121    1.5084   -3.7997 H   0  0  0  0  0  0  0  0  0  0  0  0
  1 11  2  0  0  0  0
  2 17  1  0  0  0  0
  2 23  1  0  0  0  0
  3 18  1  0  0  0  0
  3 23  1  0  0  0  0
  4 21  1  0  0  0  0
  4 25  1  0  0  0  0
  5 24  1  0  0  0  0
  5 42  1  0  0  0  0
  6  7  1  0  0  0  0
  6  8  1  0  0  0  0
  6 12  1  0  0  0  0
  6 26  1  0  0  0  0
  7  9  1  0  0  0  0
  7 13  1  0  0  0  0
  7 27  1  0  0  0  0
  8 11  1  0  0  0  0
  8 14  1  0  0  0  0
  8 28  1  0  0  0  0
  9 10  1  0  0  0  0
  9 15  2  0  0  0  0
 10 11  1  0  0  0  0
 10 16  2  0  0  0  0
 12 29  1  0  0  0  0
 12 30  1  0  0  0  0
 12 31  1  0  0  0  0
 13 19  2  0  0  0  0
 13 20  1  0  0  0  0
 14 32  1  0  0  0  0
 14 33  1  0  0  0  0
 14 34  1  0  0  0  0
 15 17  1  0  0  0  0
 15 35  1  0  0  0  0
 16 18  1  0  0  0  0
 16 36  1  0  0  0  0
 17 18  2  0  0  0  0
 19 21  1  0  0  0  0
 19 37  1  0  0  0  0
 20 22  2  0  0  0  0
 20 38  1  0  0  0  0
 21 24  2  0  0  0  0
 22 24  1  0  0  0  0
 22 39  1  0  0  0  0
 23 40  1  0  0  0  0
 23 41  1  0  0  0  0
 25 43  1  0  0  0  0
 25 44  1  0  0  0  0
 25 45  1  0  0  0  0
M  END
> <PUBCHEM_COMPOUND_CID>
13844288

> <PUBCHEM_CONFORMER_RMSD>
0.6

> <PUBCHEM_CONFORMER_DIVERSEORDER>
1
4
9
8
10
7
6
3
5
2

> <PUBCHEM_MMFF94_PARTIAL_CHARGES>
28
1 -0.57
10 0.09
11 0.42
13 -0.14
15 -0.15
16 -0.15
17 0.08
18 0.08
19 -0.15
2 -0.36
20 -0.15
21 0.08
22 -0.15
23 0.56
24 0.08
25 0.28
3 -0.36
35 0.15
36 0.15
37 0.15
38 0.15
39 0.15
4 -0.36
42 0.45
5 -0.53
7 0.29
8 0.06
9 -0.14

> <PUBCHEM_EFFECTIVE_ROTOR_COUNT>
3.2

> <PUBCHEM_PHARMACOPHORE_FEATURES>
9
1 1 acceptor
1 2 acceptor
1 3 acceptor
1 4 acceptor
1 5 donor
5 2 3 17 18 23 rings
6 13 19 20 21 22 24 rings
6 6 7 8 9 10 11 rings
6 9 10 15 16 17 18 rings

> <PUBCHEM_HEAVY_ATOM_COUNT>
25

> <PUBCHEM_ATOM_DEF_STEREO_COUNT>
3

> <PUBCHEM_ATOM_UDEF_STEREO_COUNT>
0

> <PUBCHEM_BOND_DEF_STEREO_COUNT>
0

> <PUBCHEM_BOND_UDEF_STEREO_COUNT>
0

> <PUBCHEM_ISOTOPIC_ATOM_COUNT>
0

> <PUBCHEM_COMPONENT_COUNT>
1

> <PUBCHEM_CACTVS_TAUTO_COUNT>
6

> <PUBCHEM_CONFORMER_ID>
00D33F4000000001

> <PUBCHEM_MMFF94_ENERGY>
80.6008

> <PUBCHEM_FEATURE_SELFOVERLAP>
45.848

> <PUBCHEM_SHAPE_FINGERPRINT>
10165383 225 18049198615215780204
105312 117 18339931540473951716
10764073 3 15724134876070683586
10871710 139 16893448333621621860
11101153 10 16966612045432849492
11582403 64 17317282277874948485
11725454 13 18259988184068179890
12160290 23 17978213182401348331
12730499 353 18339375088826628729
12788726 201 17760631960521335426
13134695 92 17394422742095534211
13149001 5 18054259620316170294
13583140 156 17750504243075028168
13681431 1 17834390120842299706
16945 1 18057901168340603042
17980427 23 17759490323574557240
1813 80 16983229578284037422
18981168 100 16951694563066157383
20600515 1 16090350201518441066
21033648 29 18260264183347281300
21304303 282 17615360017445881790
21427221 339 13695871372264390309
21524375 3 18408606993357090466
21860390 5 17393846636540818709
22149856 69 15866044444930010517
2255824 54 18128255584475816263
22907989 373 17764303238299062612
23419403 2 17690896337298850938
23557571 272 17387439916189208107
23559900 14 16806739348196513899
23598291 2 17201094573406855361
238 59 18338783516810343517
25 1 18272101491034321560
3187 122 17612604727037326930
3729539 64 18122653590460936518
469060 322 17678455484143569095
474 4 18272374148168938408
5845 1 9562255225797411482
633830 44 18271533013358101105
6442390 28 18261406575928086403
70251023 43 17983575204794994071
7399639 24 18187937166347641265
7808743 9 17824838973118379972
81228 2 17759801846174073506
9925002 15 17400099946232092655

> <PUBCHEM_SHAPE_MULTIPOLES>
485.14
7.46
3.93
2.04
2.03
3.38
-0.7
-8.92
-1.27
-2.29
-0.39
1.58
0.28
1.18

> <PUBCHEM_SHAPE_SELFOVERLAP>
1073.372

> <PUBCHEM_SHAPE_VOLUME>
259.5

> <PUBCHEM_COORDINATE_TYPE>
2
5
10

$$$$
