10863111
  -OEChem-09032005073D

 84 87  0     1  0  0  0  0  0999 V2000
    7.4600    1.0960    0.7265 O   0  0  0  0  0  0  0  0  0  0  0  0
   -0.8795    0.2213    0.4671 C   0  0  2  0  0  0  0  0  0  0  0  0
   -0.2236   -1.0014   -0.2613 C   0  0  1  0  0  0  0  0  0  0  0  0
   -2.3643   -0.2109    0.5175 C   0  0  1  0  0  0  0  0  0  0  0  0
    3.3599    0.6127   -0.6359 C   0  0  1  0  0  0  0  0  0  0  0  0
    1.2885   -0.8287   -0.3177 C   0  0  0  0  0  0  0  0  0  0  0  0
    4.1133   -0.5966    0.0379 C   0  0  2  0  0  0  0  0  0  0  0  0
    1.8275    0.4097   -0.4725 C   0  0  0  0  0  0  0  0  0  0  0  0
   -0.8323   -2.1652    0.5465 C   0  0  0  0  0  0  0  0  0  0  0  0
   -0.5760    1.4795   -0.3491 C   0  0  0  0  0  0  0  0  0  0  0  0
   -2.2836   -1.7230    0.8423 C   0  0  0  0  0  0  0  0  0  0  0  0
    0.9472    1.6681   -0.5178 C   0  0  0  0  0  0  0  0  0  0  0  0
    5.6798   -0.4892    0.1472 C   0  0  0  0  0  0  0  0  0  0  0  0
    2.1089   -2.0945   -0.2628 C   0  0  0  0  0  0  0  0  0  0  0  0
    3.6008   -1.9225   -0.5455 C   0  0  0  0  0  0  0  0  0  0  0  0
    3.8489    1.9146    0.0501 C   0  0  0  0  0  0  0  0  0  0  0  0
   -3.2729    0.5501    1.4759 C   0  0  2  0  0  0  0  0  0  0  0  0
   -0.3538    0.4397    1.9236 C   0  0  0  0  0  0  0  0  0  0  0  0
   -0.6588   -1.2002   -1.7481 C   0  0  0  0  0  0  0  0  0  0  0  0
    6.0477    0.8936    0.7580 C   0  0  2  0  0  0  0  0  0  0  0  0
    5.3663    2.0672    0.0624 C   0  0  0  0  0  0  0  0  0  0  0  0
    3.5845    0.7341   -2.1625 C   0  0  0  0  0  0  0  0  0  0  0  0
    6.4282   -0.7352   -1.1796 C   0  0  0  0  0  0  0  0  0  0  0  0
    6.2012   -1.5743    1.1328 C   0  0  0  0  0  0  0  0  0  0  0  0
   -4.7270    0.0352    1.4515 C   0  0  0  0  0  0  0  0  0  0  0  0
   -3.2551    2.0446    1.1366 C   0  0  0  0  0  0  0  0  0  0  0  0
   -5.3770    0.1234    0.0644 C   0  0  0  0  0  0  0  0  0  0  0  0
   -6.7954   -0.4155    0.0606 C   0  0  0  0  0  0  0  0  0  0  0  0
   -7.7806    0.2646   -0.8840 C   0  0  0  0  0  0  0  0  0  0  0  0
   -7.1214   -1.4324    0.8770 C   0  0  0  0  0  0  0  0  0  0  0  0
   -7.3434    0.0817   -2.3407 C   0  0  0  0  0  0  0  0  0  0  0  0
   -8.0181    1.7535   -0.6004 C   0  0  0  0  0  0  0  0  0  0  0  0
   -2.7675   -0.0954   -0.4941 H   0  0  0  0  0  0  0  0  0  0  0  0
    3.7760   -0.5909    1.0895 H   0  0  0  0  0  0  0  0  0  0  0  0
   -0.2948   -2.3251    1.4887 H   0  0  0  0  0  0  0  0  0  0  0  0
   -0.8144   -3.1189    0.0074 H   0  0  0  0  0  0  0  0  0  0  0  0
   -0.9561    2.3954    0.1055 H   0  0  0  0  0  0  0  0  0  0  0  0
   -1.0484    1.4294   -1.3369 H   0  0  0  0  0  0  0  0  0  0  0  0
   -2.9923   -2.2817    0.2206 H   0  0  0  0  0  0  0  0  0  0  0  0
   -2.5208   -1.9426    1.8893 H   0  0  0  0  0  0  0  0  0  0  0  0
    1.2676    2.3313    0.2952 H   0  0  0  0  0  0  0  0  0  0  0  0
    1.1228    2.2109   -1.4533 H   0  0  0  0  0  0  0  0  0  0  0  0
    2.0025   -2.5198    0.7433 H   0  0  0  0  0  0  0  0  0  0  0  0
    1.7107   -2.8379   -0.9627 H   0  0  0  0  0  0  0  0  0  0  0  0
    4.1215   -2.7835   -0.1157 H   0  0  0  0  0  0  0  0  0  0  0  0
    3.7782   -1.9730   -1.6247 H   0  0  0  0  0  0  0  0  0  0  0  0
    3.4900    1.9409    1.0882 H   0  0  0  0  0  0  0  0  0  0  0  0
    3.4276    2.7972   -0.4475 H   0  0  0  0  0  0  0  0  0  0  0  0
   -2.9271    0.4347    2.5104 H   0  0  0  0  0  0  0  0  0  0  0  0
   -0.6698   -0.3556    2.6065 H   0  0  0  0  0  0  0  0  0  0  0  0
    0.7378    0.4756    1.9828 H   0  0  0  0  0  0  0  0  0  0  0  0
   -0.7101    1.3841    2.3455 H   0  0  0  0  0  0  0  0  0  0  0  0
   -1.7402   -1.3019   -1.8744 H   0  0  0  0  0  0  0  0  0  0  0  0
   -0.3287   -0.3808   -2.3957 H   0  0  0  0  0  0  0  0  0  0  0  0
   -0.2196   -2.1181   -2.1590 H   0  0  0  0  0  0  0  0  0  0  0  0
    5.7552    0.9088    1.8158 H   0  0  0  0  0  0  0  0  0  0  0  0
    5.7549    2.1985   -0.9535 H   0  0  0  0  0  0  0  0  0  0  0  0
    5.6322    2.9949    0.5855 H   0  0  0  0  0  0  0  0  0  0  0  0
    3.0246    1.5810   -2.5779 H   0  0  0  0  0  0  0  0  0  0  0  0
    4.6232    0.9132   -2.4319 H   0  0  0  0  0  0  0  0  0  0  0  0
    3.2496   -0.1551   -2.7065 H   0  0  0  0  0  0  0  0  0  0  0  0
    6.0540   -1.6222   -1.6996 H   0  0  0  0  0  0  0  0  0  0  0  0
    7.4973   -0.9082   -1.0039 H   0  0  0  0  0  0  0  0  0  0  0  0
    6.3716    0.1104   -1.8647 H   0  0  0  0  0  0  0  0  0  0  0  0
    7.2669   -1.4380    1.3510 H   0  0  0  0  0  0  0  0  0  0  0  0
    6.0908   -2.5844    0.7263 H   0  0  0  0  0  0  0  0  0  0  0  0
    5.6654   -1.5345    2.0879 H   0  0  0  0  0  0  0  0  0  0  0  0
   -5.3242    0.6039    2.1769 H   0  0  0  0  0  0  0  0  0  0  0  0
   -4.6963   -0.9949    1.8173 H   0  0  0  0  0  0  0  0  0  0  0  0
   -4.1213    2.5492    1.5817 H   0  0  0  0  0  0  0  0  0  0  0  0
   -3.2928    2.2338    0.0591 H   0  0  0  0  0  0  0  0  0  0  0  0
   -2.3874    2.5486    1.5659 H   0  0  0  0  0  0  0  0  0  0  0  0
    7.7218    1.2950   -0.1882 H   0  0  0  0  0  0  0  0  0  0  0  0
   -4.8170   -0.4475   -0.6830 H   0  0  0  0  0  0  0  0  0  0  0  0
   -5.3727    1.1673   -0.2597 H   0  0  0  0  0  0  0  0  0  0  0  0
   -8.7534   -0.2349   -0.7766 H   0  0  0  0  0  0  0  0  0  0  0  0
   -8.1393   -1.8125    0.8820 H   0  0  0  0  0  0  0  0  0  0  0  0
   -6.4350   -1.9487    1.5330 H   0  0  0  0  0  0  0  0  0  0  0  0
   -7.1917   -0.9777   -2.5758 H   0  0  0  0  0  0  0  0  0  0  0  0
   -8.1099    0.4655   -3.0230 H   0  0  0  0  0  0  0  0  0  0  0  0
   -6.4105    0.6134   -2.5578 H   0  0  0  0  0  0  0  0  0  0  0  0
   -7.1396    2.3654   -0.8276 H   0  0  0  0  0  0  0  0  0  0  0  0
   -8.8464    2.1304   -1.2105 H   0  0  0  0  0  0  0  0  0  0  0  0
   -8.2798    1.9111    0.4515 H   0  0  0  0  0  0  0  0  0  0  0  0
  1 20  1  0  0  0  0
  1 73  1  0  0  0  0
  2  3  1  0  0  0  0
  2  4  1  0  0  0  0
  2 10  1  0  0  0  0
  2 18  1  0  0  0  0
  3  6  1  0  0  0  0
  3  9  1  0  0  0  0
  3 19  1  0  0  0  0
  4 11  1  0  0  0  0
  4 17  1  0  0  0  0
  4 33  1  0  0  0  0
  5  7  1  0  0  0  0
  5  8  1  0  0  0  0
  5 16  1  0  0  0  0
  5 22  1  0  0  0  0
  6  8  2  0  0  0  0
  6 14  1  0  0  0  0
  7 13  1  0  0  0  0
  7 15  1  0  0  0  0
  7 34  1  0  0  0  0
  8 12  1  0  0  0  0
  9 11  1  0  0  0  0
  9 35  1  0  0  0  0
  9 36  1  0  0  0  0
 10 12  1  0  0  0  0
 10 37  1  0  0  0  0
 10 38  1  0  0  0  0
 11 39  1  0  0  0  0
 11 40  1  0  0  0  0
 12 41  1  0  0  0  0
 12 42  1  0  0  0  0
 13 20  1  0  0  0  0
 13 23  1  0  0  0  0
 13 24  1  0  0  0  0
 14 15  1  0  0  0  0
 14 43  1  0  0  0  0
 14 44  1  0  0  0  0
 15 45  1  0  0  0  0
 15 46  1  0  0  0  0
 16 21  1  0  0  0  0
 16 47  1  0  0  0  0
 16 48  1  0  0  0  0
 17 25  1  0  0  0  0
 17 26  1  0  0  0  0
 17 49  1  0  0  0  0
 18 50  1  0  0  0  0
 18 51  1  0  0  0  0
 18 52  1  0  0  0  0
 19 53  1  0  0  0  0
 19 54  1  0  0  0  0
 19 55  1  0  0  0  0
 20 21  1  0  0  0  0
 20 56  1  0  0  0  0
 21 57  1  0  0  0  0
 21 58  1  0  0  0  0
 22 59  1  0  0  0  0
 22 60  1  0  0  0  0
 22 61  1  0  0  0  0
 23 62  1  0  0  0  0
 23 63  1  0  0  0  0
 23 64  1  0  0  0  0
 24 65  1  0  0  0  0
 24 66  1  0  0  0  0
 24 67  1  0  0  0  0
 25 27  1  0  0  0  0
 25 68  1  0  0  0  0
 25 69  1  0  0  0  0
 26 70  1  0  0  0  0
 26 71  1  0  0  0  0
 26 72  1  0  0  0  0
 27 28  1  0  0  0  0
 27 74  1  0  0  0  0
 27 75  1  0  0  0  0
 28 29  1  0  0  0  0
 28 30  2  0  0  0  0
 29 31  1  0  0  0  0
 29 32  1  0  0  0  0
 29 76  1  0  0  0  0
 30 77  1  0  0  0  0
 30 78  1  0  0  0  0
 31 79  1  0  0  0  0
 31 80  1  0  0  0  0
 31 81  1  0  0  0  0
 32 82  1  0  0  0  0
 32 83  1  0  0  0  0
 32 84  1  0  0  0  0
M  END
> <PUBCHEM_COMPOUND_CID>
10863111

> <PUBCHEM_CONFORMER_RMSD>
1

> <PUBCHEM_CONFORMER_DIVERSEORDER>
6
3
7
9
8
1
5
2
4

> <PUBCHEM_MMFF94_PARTIAL_CHARGES>
15
1 -0.68
12 0.14
14 0.14
20 0.28
27 0.14
28 -0.28
29 0.14
3 0.14
30 -0.3
5 0.14
6 -0.28
73 0.4
77 0.15
78 0.15
8 -0.28

> <PUBCHEM_EFFECTIVE_ROTOR_COUNT>
7.2

> <PUBCHEM_PHARMACOPHORE_FEATURES>
11
1 1 acceptor
1 1 donor
1 26 hydrophobe
1 30 hydrophobe
3 13 23 24 hydrophobe
3 29 31 32 hydrophobe
5 17 25 27 28 29 hydrophobe
5 2 3 4 9 11 rings
6 2 3 6 8 10 12 rings
6 5 6 7 8 14 15 rings
6 5 7 13 16 20 21 rings

> <PUBCHEM_HEAVY_ATOM_COUNT>
32

> <PUBCHEM_ATOM_DEF_STEREO_COUNT>
7

> <PUBCHEM_ATOM_UDEF_STEREO_COUNT>
0

> <PUBCHEM_BOND_DEF_STEREO_COUNT>
0

> <PUBCHEM_BOND_UDEF_STEREO_COUNT>
0

> <PUBCHEM_ISOTOPIC_ATOM_COUNT>
0

> <PUBCHEM_COMPONENT_COUNT>
1

> <PUBCHEM_CACTVS_TAUTO_COUNT>
1

> <PUBCHEM_CONFORMER_ID>
00A5C20700000006

> <PUBCHEM_MMFF94_ENERGY>
123.7229

> <PUBCHEM_FEATURE_SELFOVERLAP>
55.995

> <PUBCHEM_SHAPE_FINGERPRINT>
10 15 18260547862169222656
10674148 151 14129059206118815616
10930396 42 18115006607269944856
11135926 11 18411421688297417875
11181472 205 15792011117471800942
11186622 174 18408884019090534722
11719270 70 18409449176209201418
11796584 16 14851900170252302328
12236239 1 17846503607911984218
12838862 33 18338785793601978616
13782708 43 13110422134116722029
13811026 1 18334293180527272929
13914758 101 17167859747340680889
14251764 18 18131354119795806064
14294032 229 16988847151020655369
1454969 45 17775282751345484959
14767858 380 17847057788159306991
15131766 46 16664042800645518028
15142383 8 17167860868353343668
15183329 4 16370722630755501533
15849732 13 18409730677060548511
1813 80 16877950447325050900
18335252 98 14333412263555392789
20105231 36 9727637227986815297
20157964 124 18413392024932325118
20511986 3 18410285951797155067
21033648 29 17240480355229012589
21150785 3 16056882450669337955
21344244 181 8862951602044416072
21403212 168 18260823800458237714
21792934 111 18261381227347317488
21859007 373 17458614593388796765
22149856 69 16845031034708964371
23559900 14 18270678805035749401
23569917 315 18341906181205277071
24771293 8 18130795550630451280
255183 451 17700424585555452438
2838139 119 18334857204360103685
3009799 131 18040435473794551345
335352 9 18341902883766470526
34797466 226 16630536145713868384
3633792 109 18341051826662898361
4093350 32 16443334335208232633
4258327 124 15553877940230855528
4325135 7 17203609285575489829
4340502 62 18408328799677572882
437795 51 11239996767567910989
4516262 110 18264212577606966548
474113 269 17823403916854041298
5104073 3 18337970986185935608
5381727 24 15339119040445329276
6004065 56 18272368715235944377
6009941 240 17603308176157361155
6081469 158 18040998402331373022
6086070 43 17917149532167583058
6371009 1 18412267233338502857

> <PUBCHEM_SHAPE_MULTIPOLES>
652.68
21.35
2.14
1.59
20.48
0.03
-0.4
-3.06
-2.65
-1.05
0.16
1.17
-0.06
0.46

> <PUBCHEM_SHAPE_SELFOVERLAP>
1359.562

> <PUBCHEM_SHAPE_VOLUME>
372.2

> <PUBCHEM_COORDINATE_TYPE>
2
5
10

$$$$
