135410870
  -OEChem-09032005132D

137142  0     1  0  0  0  0  0999 V2000
    8.1006   -4.5630    0.0000 O   0  0  0  0  0  0  0  0  0  0  0  0
   10.4256   -3.6496    0.0000 O   0  0  0  0  0  0  0  0  0  0  0  0
   13.1449   -0.9700    0.0000 O   0  0  0  0  0  0  0  0  0  0  0  0
   10.6312   -1.9298    0.0000 O   0  0  0  0  0  0  0  0  0  0  0  0
   12.1022   -2.3530    0.0000 O   0  0  0  0  0  0  0  0  0  0  0  0
    3.0488    2.0041    0.0000 O   0  0  0  0  0  0  0  0  0  0  0  0
    8.1923   -0.0868    0.0000 N   0  0  0  0  0  0  0  0  0  0  0  0
    6.7126   -1.4362    0.0000 N   0  0  0  0  0  0  0  0  0  0  0  0
    6.6795    1.2628    0.0000 N   0  0  0  0  0  0  0  0  0  0  0  0
    5.2310   -0.0868    0.0000 N   0  0  0  0  0  0  0  0  0  0  0  0
    9.7067   -0.5470    0.0000 C   0  0  1  0  0  0  0  0  0  0  0  0
    9.7067    0.4395    0.0000 C   0  0  1  0  0  0  0  0  0  0  0  0
    8.7846   -0.8110    0.0000 C   0  0  0  0  0  0  0  0  0  0  0  0
   10.5052   -1.1490    0.0000 C   0  0  0  0  0  0  0  0  0  0  0  0
    8.7516    0.7034    0.0000 C   0  0  0  0  0  0  0  0  0  0  0  0
    8.4894   -1.7647    0.0000 C   0  0  0  0  0  0  0  0  0  0  0  0
    9.0390   -2.6116    0.0000 C   0  0  2  0  0  0  0  0  0  0  0  0
   10.5025    1.0451    0.0000 C   0  0  0  0  0  0  0  0  0  0  0  0
    7.5028   -2.0286    0.0000 C   0  0  0  0  0  0  0  0  0  0  0  0
   11.4258   -0.7585    0.0000 C   0  0  0  0  0  0  0  0  0  0  0  0
    7.2058   -2.9821    0.0000 C   0  0  0  0  0  0  0  0  0  0  0  0
    8.0299   -3.5656    0.0000 C   0  0  0  0  0  0  0  0  0  0  0  0
    8.4563    1.6242    0.0000 C   0  0  0  0  0  0  0  0  0  0  0  0
    6.2191   -2.9821    0.0000 C   0  0  0  0  0  0  0  0  0  0  0  0
   10.0319   -2.7304    0.0000 C   0  0  0  0  0  0  0  0  0  0  0  0
    5.9222   -2.0616    0.0000 C   0  0  0  0  0  0  0  0  0  0  0  0
    7.5028    1.9211    0.0000 C   0  0  0  0  0  0  0  0  0  0  0  0
   12.2243   -1.3605    0.0000 C   0  0  0  0  0  0  0  0  0  0  0  0
   22.5389   -2.6294    0.0000 C   0  0  1  0  0  0  0  0  0  0  0  0
   21.7404   -2.0274    0.0000 C   0  0  0  0  0  0  0  0  0  0  0  0
   19.1007   -2.2064    0.0000 C   0  0  2  0  0  0  0  0  0  0  0  0
   20.8198   -2.4179    0.0000 C   0  0  0  0  0  0  0  0  0  0  0  0
   20.0213   -1.8159    0.0000 C   0  0  0  0  0  0  0  0  0  0  0  0
    5.6304   -3.7905    0.0000 C   0  0  0  0  0  0  0  0  0  0  0  0
   23.4595   -2.2389    0.0000 C   0  0  0  0  0  0  0  0  0  0  0  0
    7.1728    2.8416    0.0000 C   0  0  0  0  0  0  0  0  0  0  0  0
    4.9686   -1.7647    0.0000 C   0  0  0  0  0  0  0  0  0  0  0  0
   18.3022   -1.6044    0.0000 C   0  0  0  0  0  0  0  0  0  0  0  0
   24.2580   -2.8409    0.0000 C   0  0  0  0  0  0  0  0  0  0  0  0
    6.1862    2.8416    0.0000 C   0  0  0  0  0  0  0  0  0  0  0  0
   17.3816   -1.9949    0.0000 C   0  0  0  0  0  0  0  0  0  0  0  0
   25.1786   -2.4504    0.0000 C   0  0  0  0  0  0  0  0  0  0  0  0
   22.4168   -3.6219    0.0000 C   0  0  0  0  0  0  0  0  0  0  0  0
    5.8892    1.8881    0.0000 C   0  0  0  0  0  0  0  0  0  0  0  0
   18.9786   -3.1990    0.0000 C   0  0  0  0  0  0  0  0  0  0  0  0
    4.6717   -0.8440    0.0000 C   0  0  0  0  0  0  0  0  0  0  0  0
   25.9771   -3.0524    0.0000 C   0  0  0  0  0  0  0  0  0  0  0  0
   16.5831   -1.3929    0.0000 C   0  0  0  0  0  0  0  0  0  0  0  0
    7.7483    3.6594    0.0000 C   0  0  0  0  0  0  0  0  0  0  0  0
    3.7182   -0.5800    0.0000 C   0  0  0  0  0  0  0  0  0  0  0  0
   13.9434   -1.5720    0.0000 C   0  0  0  0  0  0  0  0  0  0  0  0
    4.9356    1.6242    0.0000 C   0  0  0  0  0  0  0  0  0  0  0  0
    4.6717    0.6705    0.0000 C   0  0  0  0  0  0  0  0  0  0  0  0
   15.6625   -1.7835    0.0000 C   0  0  0  0  0  0  0  0  0  0  0  0
   11.4185   -3.7683    0.0000 C   0  0  0  0  0  0  0  0  0  0  0  0
    3.7182    0.4066    0.0000 C   0  0  0  0  0  0  0  0  0  0  0  0
   14.8640   -1.1815    0.0000 C   0  0  0  0  0  0  0  0  0  0  0  0
    5.5935    3.6470    0.0000 C   0  0  0  0  0  0  0  0  0  0  0  0
   26.8977   -2.6618    0.0000 C   0  0  0  0  0  0  0  0  0  0  0  0
   25.8550   -4.0449    0.0000 C   0  0  0  0  0  0  0  0  0  0  0  0
    2.9223   -1.1855    0.0000 C   0  0  0  0  0  0  0  0  0  0  0  0
   15.5404   -2.7760    0.0000 C   0  0  0  0  0  0  0  0  0  0  0  0
    2.9223    1.0121    0.0000 C   0  0  0  0  0  0  0  0  0  0  0  0
    2.0000   -0.7990    0.0000 C   0  0  0  0  0  0  0  0  0  0  0  0
    5.9946    4.5630    0.0000 C   0  0  0  0  0  0  0  0  0  0  0  0
   10.2616   -0.2704    0.0000 H   0  0  0  0  0  0  0  0  0  0  0  0
    9.5894    1.0483    0.0000 H   0  0  0  0  0  0  0  0  0  0  0  0
   10.0517   -1.5717    0.0000 H   0  0  0  0  0  0  0  0  0  0  0  0
   10.8428   -1.6691    0.0000 H   0  0  0  0  0  0  0  0  0  0  0  0
    7.5727   -0.1083    0.0000 H   0  0  0  0  0  0  0  0  0  0  0  0
    9.3668   -2.0854    0.0000 H   0  0  0  0  0  0  0  0  0  0  0  0
   10.8780    0.5517    0.0000 H   0  0  0  0  0  0  0  0  0  0  0  0
   10.9959    1.4206    0.0000 H   0  0  0  0  0  0  0  0  0  0  0  0
   10.1270    1.5385    0.0000 H   0  0  0  0  0  0  0  0  0  0  0  0
   11.8794   -0.3358    0.0000 H   0  0  0  0  0  0  0  0  0  0  0  0
   11.0883   -0.2384    0.0000 H   0  0  0  0  0  0  0  0  0  0  0  0
    8.8928    2.0644    0.0000 H   0  0  0  0  0  0  0  0  0  0  0  0
   23.0339   -3.0026    0.0000 H   0  0  0  0  0  0  0  0  0  0  0  0
   22.1939   -1.6047    0.0000 H   0  0  0  0  0  0  0  0  0  0  0  0
   21.4028   -1.5073    0.0000 H   0  0  0  0  0  0  0  0  0  0  0  0
   18.5299   -2.4486    0.0000 H   0  0  0  0  0  0  0  0  0  0  0  0
   20.3662   -2.8406    0.0000 H   0  0  0  0  0  0  0  0  0  0  0  0
   21.1573   -2.9380    0.0000 H   0  0  0  0  0  0  0  0  0  0  0  0
   20.4748   -1.3932    0.0000 H   0  0  0  0  0  0  0  0  0  0  0  0
   19.6837   -1.2959    0.0000 H   0  0  0  0  0  0  0  0  0  0  0  0
    5.1292   -3.4255    0.0000 H   0  0  0  0  0  0  0  0  0  0  0  0
    5.2654   -4.2917    0.0000 H   0  0  0  0  0  0  0  0  0  0  0  0
    6.1316   -4.1555    0.0000 H   0  0  0  0  0  0  0  0  0  0  0  0
   23.9130   -1.8162    0.0000 H   0  0  0  0  0  0  0  0  0  0  0  0
   23.1219   -1.7188    0.0000 H   0  0  0  0  0  0  0  0  0  0  0  0
   18.7557   -1.1817    0.0000 H   0  0  0  0  0  0  0  0  0  0  0  0
   17.9646   -1.0844    0.0000 H   0  0  0  0  0  0  0  0  0  0  0  0
    4.5324   -2.2053    0.0000 H   0  0  0  0  0  0  0  0  0  0  0  0
   23.8044   -3.2636    0.0000 H   0  0  0  0  0  0  0  0  0  0  0  0
   24.5955   -3.3609    0.0000 H   0  0  0  0  0  0  0  0  0  0  0  0
   16.9281   -2.4177    0.0000 H   0  0  0  0  0  0  0  0  0  0  0  0
   17.7192   -2.5150    0.0000 H   0  0  0  0  0  0  0  0  0  0  0  0
   25.6321   -2.0276    0.0000 H   0  0  0  0  0  0  0  0  0  0  0  0
   24.8410   -1.9303    0.0000 H   0  0  0  0  0  0  0  0  0  0  0  0
   21.8014   -3.5462    0.0000 H   0  0  0  0  0  0  0  0  0  0  0  0
   22.3411   -4.2373    0.0000 H   0  0  0  0  0  0  0  0  0  0  0  0
   23.0321   -3.6976    0.0000 H   0  0  0  0  0  0  0  0  0  0  0  0
   18.3632   -3.1232    0.0000 H   0  0  0  0  0  0  0  0  0  0  0  0
   18.9029   -3.8143    0.0000 H   0  0  0  0  0  0  0  0  0  0  0  0
   19.5940   -3.2746    0.0000 H   0  0  0  0  0  0  0  0  0  0  0  0
   25.4063   -3.2945    0.0000 H   0  0  0  0  0  0  0  0  0  0  0  0
   17.0366   -0.9702    0.0000 H   0  0  0  0  0  0  0  0  0  0  0  0
   16.2456   -0.8729    0.0000 H   0  0  0  0  0  0  0  0  0  0  0  0
    8.2553    3.3026    0.0000 H   0  0  0  0  0  0  0  0  0  0  0  0
    8.1051    4.1665    0.0000 H   0  0  0  0  0  0  0  0  0  0  0  0
    7.2412    4.0162    0.0000 H   0  0  0  0  0  0  0  0  0  0  0  0
   13.4899   -1.9947    0.0000 H   0  0  0  0  0  0  0  0  0  0  0  0
   14.2810   -2.0920    0.0000 H   0  0  0  0  0  0  0  0  0  0  0  0
    4.4972    2.0625    0.0000 H   0  0  0  0  0  0  0  0  0  0  0  0
   11.3449   -4.3839    0.0000 H   0  0  0  0  0  0  0  0  0  0  0  0
   12.0341   -3.8419    0.0000 H   0  0  0  0  0  0  0  0  0  0  0  0
   11.4921   -3.1527    0.0000 H   0  0  0  0  0  0  0  0  0  0  0  0
   14.9397   -0.5661    0.0000 H   0  0  0  0  0  0  0  0  0  0  0  0
    4.9773    3.5785    0.0000 H   0  0  0  0  0  0  0  0  0  0  0  0
   27.1398   -3.2326    0.0000 H   0  0  0  0  0  0  0  0  0  0  0  0
   27.4684   -2.4197    0.0000 H   0  0  0  0  0  0  0  0  0  0  0  0
   26.6555   -2.0911    0.0000 H   0  0  0  0  0  0  0  0  0  0  0  0
   25.2396   -3.9692    0.0000 H   0  0  0  0  0  0  0  0  0  0  0  0
   25.7793   -4.6602    0.0000 H   0  0  0  0  0  0  0  0  0  0  0  0
   26.4703   -4.1206    0.0000 H   0  0  0  0  0  0  0  0  0  0  0  0
    2.5870   -1.7070    0.0000 H   0  0  0  0  0  0  0  0  0  0  0  0
    3.3777   -1.6062    0.0000 H   0  0  0  0  0  0  0  0  0  0  0  0
   14.9250   -2.7003    0.0000 H   0  0  0  0  0  0  0  0  0  0  0  0
   15.4647   -3.3913    0.0000 H   0  0  0  0  0  0  0  0  0  0  0  0
   16.1558   -2.8517    0.0000 H   0  0  0  0  0  0  0  0  0  0  0  0
    2.3505    0.7725    0.0000 H   0  0  0  0  0  0  0  0  0  0  0  0
    2.2396   -0.2271    0.0000 H   0  0  0  0  0  0  0  0  0  0  0  0
    1.4282   -0.5593    0.0000 H   0  0  0  0  0  0  0  0  0  0  0  0
    1.7604   -1.3708    0.0000 H   0  0  0  0  0  0  0  0  0  0  0  0
    6.6108    4.6316    0.0000 H   0  0  0  0  0  0  0  0  0  0  0  0
    5.6271    5.0624    0.0000 H   0  0  0  0  0  0  0  0  0  0  0  0
    2.5554    2.3795    0.0000 H   0  0  0  0  0  0  0  0  0  0  0  0
  1 22  2  0  0  0  0
  2 25  1  0  0  0  0
  2 55  1  0  0  0  0
  3 28  1  0  0  0  0
  3 51  1  0  0  0  0
  4 25  2  0  0  0  0
  5 28  2  0  0  0  0
  6 63  1  0  0  0  0
  6137  1  0  0  0  0
  7 13  1  0  0  0  0
  7 15  1  0  0  0  0
  7 70  1  0  0  0  0
  8 19  2  0  0  0  0
  8 26  1  0  0  0  0
  9 27  2  0  0  0  0
  9 44  1  0  0  0  0
 10 46  1  0  0  0  0
 10 53  2  0  0  0  0
 11 12  1  0  0  0  0
 11 13  1  0  0  0  0
 11 14  1  6  0  0  0
 11 66  1  0  0  0  0
 12 15  1  0  0  0  0
 12 18  1  1  0  0  0
 12 67  1  0  0  0  0
 13 16  2  0  0  0  0
 14 20  1  0  0  0  0
 14 68  1  0  0  0  0
 14 69  1  0  0  0  0
 15 23  2  0  0  0  0
 16 17  1  0  0  0  0
 16 19  1  0  0  0  0
 17 22  1  0  0  0  0
 17 25  1  1  0  0  0
 17 71  1  0  0  0  0
 18 72  1  0  0  0  0
 18 73  1  0  0  0  0
 18 74  1  0  0  0  0
 19 21  1  0  0  0  0
 20 28  1  0  0  0  0
 20 75  1  0  0  0  0
 20 76  1  0  0  0  0
 21 22  1  0  0  0  0
 21 24  2  0  0  0  0
 23 27  1  0  0  0  0
 23 77  1  0  0  0  0
 24 26  1  0  0  0  0
 24 34  1  0  0  0  0
 26 37  2  0  0  0  0
 27 36  1  0  0  0  0
 29 30  1  0  0  0  0
 29 35  1  0  0  0  0
 29 43  1  1  0  0  0
 29 78  1  0  0  0  0
 30 32  1  0  0  0  0
 30 79  1  0  0  0  0
 30 80  1  0  0  0  0
 31 33  1  0  0  0  0
 31 38  1  0  0  0  0
 31 45  1  1  0  0  0
 31 81  1  0  0  0  0
 32 33  1  0  0  0  0
 32 82  1  0  0  0  0
 32 83  1  0  0  0  0
 33 84  1  0  0  0  0
 33 85  1  0  0  0  0
 34 86  1  0  0  0  0
 34 87  1  0  0  0  0
 34 88  1  0  0  0  0
 35 39  1  0  0  0  0
 35 89  1  0  0  0  0
 35 90  1  0  0  0  0
 36 40  2  0  0  0  0
 36 49  1  0  0  0  0
 37 46  1  0  0  0  0
 37 93  1  0  0  0  0
 38 41  1  0  0  0  0
 38 91  1  0  0  0  0
 38 92  1  0  0  0  0
 39 42  1  0  0  0  0
 39 94  1  0  0  0  0
 39 95  1  0  0  0  0
 40 44  1  0  0  0  0
 40 58  1  0  0  0  0
 41 48  1  0  0  0  0
 41 96  1  0  0  0  0
 41 97  1  0  0  0  0
 42 47  1  0  0  0  0
 42 98  1  0  0  0  0
 42 99  1  0  0  0  0
 43100  1  0  0  0  0
 43101  1  0  0  0  0
 43102  1  0  0  0  0
 44 52  2  0  0  0  0
 45103  1  0  0  0  0
 45104  1  0  0  0  0
 45105  1  0  0  0  0
 46 50  2  0  0  0  0
 47 59  1  0  0  0  0
 47 60  1  0  0  0  0
 47106  1  0  0  0  0
 48 54  1  0  0  0  0
 48107  1  0  0  0  0
 48108  1  0  0  0  0
 49109  1  0  0  0  0
 49110  1  0  0  0  0
 49111  1  0  0  0  0
 50 56  1  0  0  0  0
 50 61  1  0  0  0  0
 51 57  1  0  0  0  0
 51112  1  0  0  0  0
 51113  1  0  0  0  0
 52 53  1  0  0  0  0
 52114  1  0  0  0  0
 53 56  1  0  0  0  0
 54 57  2  0  0  0  0
 54 62  1  0  0  0  0
 55115  1  0  0  0  0
 55116  1  0  0  0  0
 55117  1  0  0  0  0
 56 63  2  0  0  0  0
 57118  1  0  0  0  0
 58 65  2  0  0  0  0
 58119  1  0  0  0  0
 59120  1  0  0  0  0
 59121  1  0  0  0  0
 59122  1  0  0  0  0
 60123  1  0  0  0  0
 60124  1  0  0  0  0
 60125  1  0  0  0  0
 61 64  1  0  0  0  0
 61126  1  0  0  0  0
 61127  1  0  0  0  0
 62128  1  0  0  0  0
 62129  1  0  0  0  0
 62130  1  0  0  0  0
 63131  1  0  0  0  0
 64132  1  0  0  0  0
 64133  1  0  0  0  0
 64134  1  0  0  0  0
 65135  1  0  0  0  0
 65136  1  0  0  0  0
M  END
> <PUBCHEM_COMPOUND_CID>
135410870

> <PUBCHEM_COMPOUND_CANONICALIZED>
1

> <PUBCHEM_CACTVS_COMPLEXITY>
2350

> <PUBCHEM_CACTVS_HBOND_ACCEPTOR>
10

> <PUBCHEM_CACTVS_HBOND_DONOR>
2

> <PUBCHEM_CACTVS_ROTATABLE_BOND>
22

> <PUBCHEM_CACTVS_SUBSKEYS>
AAADcfB/uAAAAAAAAAAAAAAAAAAAAeIECBAAAAAAAAAAAAAAAAAAHgAQCAAADQyhgAICCALABgCoA6TyTACAAAAgIgAICAEwAFgIFBYIoQAGEAAE8ACIoQOY2dIOgAAAAAAAAAAAAAAAAAAAAAAAAAAAAA==

> <PUBCHEM_IUPAC_OPENEYE_NAME>
methyl (3R,12Z,21S,22S)-11-ethyl-12-(hydroxymethylene)-17,21,26-trimethyl-4-oxo-22-[3-oxo-3-[(E,7R,11R)-3,7,11,15-tetramethylhexadec-2-enoxy]propyl]-16-vinyl-7,23,24,25-tetrazahexacyclo[18.2.1.15,8.110,13.115,18.02,6]hexacosa-1,5(26),6,8,10,13(25),14,16,18(24),19-decaene-3-carboxylate

> <PUBCHEM_IUPAC_CAS_NAME>
(3R,12Z,21S,22S)-16-ethenyl-11-ethyl-12-(hydroxymethylidene)-17,21,26-trimethyl-4-oxo-22-[3-oxo-3-[(E,7R,11R)-3,7,11,15-tetramethylhexadec-2-enoxy]propyl]-7,23,24,25-tetrazahexacyclo[18.2.1.15,8.110,13.115,18.02,6]hexacosa-1,5(26),6,8,10,13(25),14,16,18(24),19-decaene-3-carboxylic acid methyl ester

> <PUBCHEM_IUPAC_NAME_MARKUP>
methyl (3<I>R</I>,12<I>Z</I>,21<I>S</I>,22<I>S</I>)-16-ethenyl-11-ethyl-12-(hydroxymethylidene)-17,21,26-trimethyl-4-oxo-22-[3-oxo-3-[(<I>E</I>,7<I>R</I>,11<I>R</I>)-3,7,11,15-tetramethylhexadec-2-enoxy]propyl]-7,23,24,25-tetrazahexacyclo[18.2.1.1<SUP>5,8</SUP>.1<SUP>10,13</SUP>.1<SUP>15,18</SUP>.0<SUP>2,6</SUP>]hexacosa-1,5(26),6,8,10,13(25),14,16,18(24),19-decaene-3-carboxylate

> <PUBCHEM_IUPAC_NAME>
methyl (3R,12Z,21S,22S)-16-ethenyl-11-ethyl-12-(hydroxymethylidene)-17,21,26-trimethyl-4-oxo-22-[3-oxo-3-[(E,7R,11R)-3,7,11,15-tetramethylhexadec-2-enoxy]propyl]-7,23,24,25-tetrazahexacyclo[18.2.1.15,8.110,13.115,18.02,6]hexacosa-1,5(26),6,8,10,13(25),14,16,18(24),19-decaene-3-carboxylate

> <PUBCHEM_IUPAC_SYSTEMATIC_NAME>
methyl (3R,12Z,21S,22S)-16-ethenyl-11-ethyl-17,21,26-trimethyl-4-oxidanylidene-22-[3-oxidanylidene-3-[(E,7R,11R)-3,7,11,15-tetramethylhexadec-2-enoxy]propyl]-12-(oxidanylmethylidene)-7,23,24,25-tetrazahexacyclo[18.2.1.15,8.110,13.115,18.02,6]hexacosa-1,5(26),6,8,10,13(25),14,16,18(24),19-decaene-3-carboxylate

> <PUBCHEM_IUPAC_TRADITIONAL_NAME>
(3R,12Z,21S,22S)-11-ethyl-12-(hydroxymethylene)-4-keto-22-[3-keto-3-[(E,7R,11R)-3,7,11,15-tetramethylhexadec-2-enoxy]propyl]-17,21,26-trimethyl-16-vinyl-7,23,24,25-tetrazahexacyclo[18.2.1.15,8.110,13.115,18.02,6]hexacosa-1,5(26),6,8,10,13(25),14,16,18(24),19-decaene-3-carboxylic acid methyl ester

> <PUBCHEM_IUPAC_INCHI>
InChI=1S/C55H72N4O6/c1-12-38-35(8)42-27-43-36(9)40(23-24-48(61)65-26-25-34(7)22-16-21-33(6)20-15-19-32(5)18-14-17-31(3)4)52(58-43)50-51(55(63)64-11)54(62)49-37(10)44(59-53(49)50)28-46-39(13-2)41(30-60)47(57-46)29-45(38)56-42/h12,25,27-33,36,40,51,58,60H,1,13-24,26H2,2-11H3/b34-25+,41-30-,43-27?,44-28?,45-29?,52-50?/t32-,33-,36+,40+,51-/m1/s1

> <PUBCHEM_IUPAC_INCHIKEY>
AMVFDCTXPYHACR-QAFVXPGPSA-N

> <PUBCHEM_XLOGP3_AA>
11

> <PUBCHEM_EXACT_MASS>
884.545186

> <PUBCHEM_MOLECULAR_FORMULA>
C55H72N4O6

> <PUBCHEM_MOLECULAR_WEIGHT>
885.2

> <PUBCHEM_OPENEYE_CAN_SMILES>
CCC1=C2C=C3C(=C4C(=O)C(C(=C5C(C(C(=CC6=NC(=CC(=N2)C1=CO)C(=C6C)C=C)N5)C)CCC(=O)OCC=C(C)CCCC(C)CCCC(C)CCCC(C)C)C4=N3)C(=O)OC)C

> <PUBCHEM_OPENEYE_ISO_SMILES>
CCC\1=C2C=C3C(=C4C(=O)[C@@H](C(=C5[C@H]([C@@H](C(=CC6=NC(=CC(=N2)/C1=C\O)C(=C6C)C=C)N5)C)CCC(=O)OC/C=C(\C)/CCC[C@H](C)CCC[C@H](C)CCCC(C)C)C4=N3)C(=O)OC)C

> <PUBCHEM_CACTVS_TPSA>
139

> <PUBCHEM_MONOISOTOPIC_WEIGHT>
884.545186

> <PUBCHEM_TOTAL_CHARGE>
0

> <PUBCHEM_HEAVY_ATOM_COUNT>
65

> <PUBCHEM_ATOM_DEF_STEREO_COUNT>
5

> <PUBCHEM_ATOM_UDEF_STEREO_COUNT>
0

> <PUBCHEM_BOND_DEF_STEREO_COUNT>
2

> <PUBCHEM_BOND_UDEF_STEREO_COUNT>
0

> <PUBCHEM_ISOTOPIC_ATOM_COUNT>
0

> <PUBCHEM_COMPONENT_COUNT>
1

> <PUBCHEM_CACTVS_TAUTO_COUNT>
-1

> <PUBCHEM_COORDINATE_TYPE>
1
5
255

> <PUBCHEM_BONDANNOTATIONS>
10  46  8
10  53  8
11  14  6
12  18  5
13  16  8
15  23  8
16  19  8
17  25  5
19  21  8
21  24  8
23  27  8
24  26  8
26  37  8
27  36  8
29  43  5
31  45  5
36  40  8
37  46  8
40  44  8
44  52  8
46  50  8
50  56  8
52  53  8
53  56  8
7  13  8
7  15  8
8  19  8
8  26  8
9  27  8
9  44  8

$$$$
