84532
  -OEChem-11232019283D

 27 28  0     1  0  0  0  0  0999 V2000
   -2.6972    0.5250   -0.5115 O   0  0  0  0  0  0  0  0  0  0  0  0
    1.3198   -0.2165   -0.3136 C   0  0  0  0  0  0  0  0  0  0  0  0
    0.5120   -0.5384    0.9813 C   0  0  1  0  0  0  0  0  0  0  0  0
    0.8882    1.2552   -0.0543 C   0  0  2  0  0  0  0  0  0  0  0  0
    0.9461    0.8813    1.4536 C   0  0  0  0  0  0  0  0  0  0  0  0
   -1.0077   -0.6336    0.7721 C   0  0  1  0  0  0  0  0  0  0  0  0
   -0.5312    1.5564   -0.5381 C   0  0  0  0  0  0  0  0  0  0  0  0
   -1.5258    0.4800   -0.1373 C   0  0  0  0  0  0  0  0  0  0  0  0
    2.8094   -0.4734   -0.3582 C   0  0  0  0  0  0  0  0  0  0  0  0
    0.7099   -0.8240   -1.5695 C   0  0  0  0  0  0  0  0  0  0  0  0
   -1.4237   -2.0118    0.2754 C   0  0  0  0  0  0  0  0  0  0  0  0
    0.9124   -1.3487    1.6004 H   0  0  0  0  0  0  0  0  0  0  0  0
    1.6043    2.0244   -0.3613 H   0  0  0  0  0  0  0  0  0  0  0  0
    1.9407    0.9358    1.9103 H   0  0  0  0  0  0  0  0  0  0  0  0
    0.2502    1.4107    2.1120 H   0  0  0  0  0  0  0  0  0  0  0  0
   -1.4805   -0.4721    1.7502 H   0  0  0  0  0  0  0  0  0  0  0  0
   -0.5501    1.6720   -1.6270 H   0  0  0  0  0  0  0  0  0  0  0  0
   -0.8715    2.4993   -0.0952 H   0  0  0  0  0  0  0  0  0  0  0  0
    3.0225   -1.5478   -0.3943 H   0  0  0  0  0  0  0  0  0  0  0  0
    3.3318   -0.0772    0.5181 H   0  0  0  0  0  0  0  0  0  0  0  0
    3.2689   -0.0102   -1.2386 H   0  0  0  0  0  0  0  0  0  0  0  0
    1.2715   -0.4832   -2.4503 H   0  0  0  0  0  0  0  0  0  0  0  0
   -0.3227   -0.5951   -1.8182 H   0  0  0  0  0  0  0  0  0  0  0  0
    0.8129   -1.9159   -1.5531 H   0  0  0  0  0  0  0  0  0  0  0  0
   -0.8410   -2.8050    0.7552 H   0  0  0  0  0  0  0  0  0  0  0  0
   -2.4776   -2.1846    0.5255 H   0  0  0  0  0  0  0  0  0  0  0  0
   -1.3585   -2.1428   -0.8058 H   0  0  0  0  0  0  0  0  0  0  0  0
  1  8  2  0  0  0  0
  2  3  1  0  0  0  0
  2  4  1  0  0  0  0
  2  9  1  0  0  0  0
  2 10  1  0  0  0  0
  3  5  1  0  0  0  0
  3  6  1  0  0  0  0
  3 12  1  0  0  0  0
  4  5  1  0  0  0  0
  4  7  1  0  0  0  0
  4 13  1  0  0  0  0
  5 14  1  0  0  0  0
  5 15  1  0  0  0  0
  6  8  1  0  0  0  0
  6 11  1  0  0  0  0
  6 16  1  0  0  0  0
  7  8  1  0  0  0  0
  7 17  1  0  0  0  0
  7 18  1  0  0  0  0
  9 19  1  0  0  0  0
  9 20  1  0  0  0  0
  9 21  1  0  0  0  0
 10 22  1  0  0  0  0
 10 23  1  0  0  0  0
 10 24  1  0  0  0  0
 11 25  1  0  0  0  0
 11 26  1  0  0  0  0
 11 27  1  0  0  0  0
M  END
> <PUBCHEM_COMPOUND_CID>
84532

> <PUBCHEM_CONFORMER_RMSD>
0.4

> <PUBCHEM_CONFORMER_DIVERSEORDER>
1

> <PUBCHEM_MMFF94_PARTIAL_CHARGES>
4
1 -0.57
6 0.06
7 0.06
8 0.45

> <PUBCHEM_EFFECTIVE_ROTOR_COUNT>
0.8

> <PUBCHEM_PHARMACOPHORE_FEATURES>
3
1 1 acceptor
3 2 9 10 hydrophobe
7 2 3 4 5 6 7 8 rings

> <PUBCHEM_HEAVY_ATOM_COUNT>
11

> <PUBCHEM_ATOM_DEF_STEREO_COUNT>
3

> <PUBCHEM_ATOM_UDEF_STEREO_COUNT>
0

> <PUBCHEM_BOND_DEF_STEREO_COUNT>
0

> <PUBCHEM_BOND_UDEF_STEREO_COUNT>
0

> <PUBCHEM_ISOTOPIC_ATOM_COUNT>
0

> <PUBCHEM_COMPONENT_COUNT>
1

> <PUBCHEM_CACTVS_TAUTO_COUNT>
3

> <PUBCHEM_CONFORMER_ID>
00014A3400000001

> <PUBCHEM_MMFF94_ENERGY>
40.2678

> <PUBCHEM_FEATURE_SELFOVERLAP>
15.223

> <PUBCHEM_SHAPE_FINGERPRINT>
10702982 57 16153721907004738290
12138202 97 18334859402660413174
12423570 1 12473646756585004890
12716758 59 18262241010684932266
13024252 1 15720549531877100086
137420 1 12003996386408946936
16945 1 18409735023688836000
20653085 51 16082242652088759806
21040471 1 18115293502062170681
2748010 2 18191586552097019605
29004967 10 17417816097616632922
369184 2 18187940438896455626
5084963 1 18342728603211947861
68250623 7 18117846718412134620

> <PUBCHEM_SHAPE_MULTIPOLES>
220.51
2.75
1.62
1.25
0.06
0.16
-0.04
0.36
0.41
-0.47
0.04
0.24
0.05
0.46

> <PUBCHEM_SHAPE_SELFOVERLAP>
462.651

> <PUBCHEM_SHAPE_VOLUME>
127.6

> <PUBCHEM_COORDINATE_TYPE>
2
5
10

$$$$
