16656318
  -OEChem-11232019343D

 34 35  0     1  0  0  0  0  0999 V2000
    2.1882   -0.2771    0.3138 O   0  0  0  0  0  0  0  0  0  0  0  0
    4.0228    0.7548   -0.6383 O   0  0  0  0  0  0  0  0  0  0  0  0
   -2.1264   -0.8883    0.0537 C   0  0  0  0  0  0  0  0  0  0  0  0
   -0.7599   -0.4120   -0.5221 C   0  0  1  0  0  0  0  0  0  0  0  0
   -2.6702    0.4684   -0.4769 C   0  0  2  0  0  0  0  0  0  0  0  0
   -1.6235    0.2876   -1.6219 C   0  0  0  0  0  0  0  0  0  0  0  0
   -0.0491    0.5440    0.4535 C   0  0  2  0  0  0  0  0  0  0  0  0
   -2.3685    1.6131    0.4967 C   0  0  0  0  0  0  0  0  0  0  0  0
   -0.8560    1.8501    0.5817 C   0  0  0  0  0  0  0  0  0  0  0  0
   -2.7337   -2.1573   -0.5078 C   0  0  0  0  0  0  0  0  0  0  0  0
   -2.1459   -1.0057    1.5724 C   0  0  0  0  0  0  0  0  0  0  0  0
    1.3705    0.8258   -0.0295 C   0  0  0  0  0  0  0  0  0  0  0  0
    3.5060   -0.1858   -0.0508 C   0  0  0  0  0  0  0  0  0  0  0  0
    4.2457   -1.4177    0.3753 C   0  0  0  0  0  0  0  0  0  0  0  0
   -0.1198   -1.2251   -0.8820 H   0  0  0  0  0  0  0  0  0  0  0  0
   -3.7174    0.4561   -0.7959 H   0  0  0  0  0  0  0  0  0  0  0  0
   -1.9393   -0.3555   -2.4507 H   0  0  0  0  0  0  0  0  0  0  0  0
   -1.2141    1.2018   -2.0617 H   0  0  0  0  0  0  0  0  0  0  0  0
    0.0676    0.0730    1.4349 H   0  0  0  0  0  0  0  0  0  0  0  0
   -2.8305    1.4651    1.4772 H   0  0  0  0  0  0  0  0  0  0  0  0
   -2.8276    2.5328    0.1111 H   0  0  0  0  0  0  0  0  0  0  0  0
   -0.5724    2.5328   -0.2310 H   0  0  0  0  0  0  0  0  0  0  0  0
   -0.6023    2.3729    1.5111 H   0  0  0  0  0  0  0  0  0  0  0  0
   -3.7665   -2.2869   -0.1647 H   0  0  0  0  0  0  0  0  0  0  0  0
   -2.7602   -2.1705   -1.6014 H   0  0  0  0  0  0  0  0  0  0  0  0
   -2.1635   -3.0392   -0.1945 H   0  0  0  0  0  0  0  0  0  0  0  0
   -1.5475   -1.8688    1.8913 H   0  0  0  0  0  0  0  0  0  0  0  0
   -1.7902   -0.1611    2.1619 H   0  0  0  0  0  0  0  0  0  0  0  0
   -3.1706   -1.1888    1.9211 H   0  0  0  0  0  0  0  0  0  0  0  0
    1.7649    1.7176    0.4727 H   0  0  0  0  0  0  0  0  0  0  0  0
    1.3939    0.9882   -1.1138 H   0  0  0  0  0  0  0  0  0  0  0  0
    4.2003   -1.5190    1.4625 H   0  0  0  0  0  0  0  0  0  0  0  0
    5.2943   -1.3333    0.0761 H   0  0  0  0  0  0  0  0  0  0  0  0
    3.8139   -2.2955   -0.1118 H   0  0  0  0  0  0  0  0  0  0  0  0
  1 12  1  0  0  0  0
  1 13  1  0  0  0  0
  2 13  2  0  0  0  0
  3  4  1  0  0  0  0
  3  5  1  0  0  0  0
  3 10  1  0  0  0  0
  3 11  1  0  0  0  0
  4  6  1  0  0  0  0
  4  7  1  0  0  0  0
  4 15  1  0  0  0  0
  5  6  1  0  0  0  0
  5  8  1  0  0  0  0
  5 16  1  0  0  0  0
  6 17  1  0  0  0  0
  6 18  1  0  0  0  0
  7  9  1  0  0  0  0
  7 12  1  0  0  0  0
  7 19  1  0  0  0  0
  8  9  1  0  0  0  0
  8 20  1  0  0  0  0
  8 21  1  0  0  0  0
  9 22  1  0  0  0  0
  9 23  1  0  0  0  0
 10 24  1  0  0  0  0
 10 25  1  0  0  0  0
 10 26  1  0  0  0  0
 11 27  1  0  0  0  0
 11 28  1  0  0  0  0
 11 29  1  0  0  0  0
 12 30  1  0  0  0  0
 12 31  1  0  0  0  0
 13 14  1  0  0  0  0
 14 32  1  0  0  0  0
 14 33  1  0  0  0  0
 14 34  1  0  0  0  0
M  END
> <PUBCHEM_COMPOUND_CID>
16656318

> <PUBCHEM_CONFORMER_RMSD>
0.6

> <PUBCHEM_CONFORMER_DIVERSEORDER>
1
9
19
18
16
12
2
5
17
7
4
11
3
14
8
15
13
6
10

> <PUBCHEM_MMFF94_PARTIAL_CHARGES>
5
1 -0.43
12 0.28
13 0.66
14 0.06
2 -0.57

> <PUBCHEM_EFFECTIVE_ROTOR_COUNT>
4

> <PUBCHEM_PHARMACOPHORE_FEATURES>
3
1 2 acceptor
3 3 10 11 hydrophobe
7 3 4 5 6 7 8 9 rings

> <PUBCHEM_HEAVY_ATOM_COUNT>
14

> <PUBCHEM_ATOM_DEF_STEREO_COUNT>
3

> <PUBCHEM_ATOM_UDEF_STEREO_COUNT>
0

> <PUBCHEM_BOND_DEF_STEREO_COUNT>
0

> <PUBCHEM_BOND_UDEF_STEREO_COUNT>
0

> <PUBCHEM_ISOTOPIC_ATOM_COUNT>
0

> <PUBCHEM_COMPONENT_COUNT>
1

> <PUBCHEM_CACTVS_TAUTO_COUNT>
1

> <PUBCHEM_CONFORMER_ID>
00FE27BE00000001

> <PUBCHEM_MMFF94_ENERGY>
45.1561

> <PUBCHEM_FEATURE_SELFOVERLAP>
15.223

> <PUBCHEM_SHAPE_FINGERPRINT>
11127187 94 18409439315264418247
11769659 78 18337104661354827358
12932764 1 17418088832656734096
13024252 1 12035450532436267301
13296908 3 18413103983388241448
14577589 140 17561361764217682228
15309172 13 16487257668648430822
16945 1 18272944803863459085
18186145 218 17458064842191472936
19107657 162 18060140942488465694
19422 9 18408605855559814014
200 152 18410003368713328022
20279233 1 16271637898208136148
20281407 28 18272932747657916938
21524375 3 17483678897178859809
23402539 116 18131061607475948125
23559900 14 18271233959707748744
369184 2 18060414742142216817
559249 180 17974281033047997650

> <PUBCHEM_SHAPE_MULTIPOLES>
276.37
6.58
1.83
1.14
9.65
0.22
0.02
2
0.16
-1.07
-0.21
-0.71
0.09
-0.35

> <PUBCHEM_SHAPE_SELFOVERLAP>
568.035

> <PUBCHEM_SHAPE_VOLUME>
161.4

> <PUBCHEM_COORDINATE_TYPE>
2
5
10

$$$$
