25203405
  -OEChem-11232019393D

 39 41  0     1  0  0  0  0  0999 V2000
   -0.5281    1.1379    0.1969 C   0  0  1  0  0  0  0  0  0  0  0  0
   -1.1734   -0.1564    0.7473 C   0  0  1  0  0  0  0  0  0  0  0  0
    1.0282    1.2233    0.1886 C   0  0  1  0  0  0  0  0  0  0  0  0
   -2.6344    0.0078    0.2813 C   0  0  1  0  0  0  0  0  0  0  0  0
   -0.5183   -1.4869    0.3255 C   0  0  0  0  0  0  0  0  0  0  0  0
   -1.2286    1.3872   -1.1549 C   0  0  0  0  0  0  0  0  0  0  0  0
    1.0176   -1.5483    0.4565 C   0  0  2  0  0  0  0  0  0  0  0  0
    1.5865    0.7181    1.5467 C   0  0  0  0  0  0  0  0  0  0  0  0
   -2.5033    0.5401   -1.1453 C   0  0  0  0  0  0  0  0  0  0  0  0
    1.5340   -0.8140    1.7067 C   0  0  0  0  0  0  0  0  0  0  0  0
    1.6391    0.3768   -0.9106 C   0  0  0  0  0  0  0  0  0  0  0  0
    1.6448   -0.9587   -0.7852 C   0  0  0  0  0  0  0  0  0  0  0  0
    1.4592    2.6890   -0.0113 C   0  0  0  0  0  0  0  0  0  0  0  0
   -3.5138   -1.2291    0.3799 C   0  0  0  0  0  0  0  0  0  0  0  0
    2.1903   -1.8868   -1.8220 C   0  0  0  0  0  0  0  0  0  0  0  0
   -0.8775    1.9400    0.8679 H   0  0  0  0  0  0  0  0  0  0  0  0
   -1.1630   -0.1203    1.8450 H   0  0  0  0  0  0  0  0  0  0  0  0
   -3.0978    0.7935    0.8953 H   0  0  0  0  0  0  0  0  0  0  0  0
   -0.8075   -1.7516   -0.6999 H   0  0  0  0  0  0  0  0  0  0  0  0
   -0.9377   -2.2772    0.9628 H   0  0  0  0  0  0  0  0  0  0  0  0
   -0.6166    1.1127   -2.0193 H   0  0  0  0  0  0  0  0  0  0  0  0
   -1.4720    2.4505   -1.2621 H   0  0  0  0  0  0  0  0  0  0  0  0
    1.3085   -2.6036    0.5381 H   0  0  0  0  0  0  0  0  0  0  0  0
    1.0535    1.1930    2.3805 H   0  0  0  0  0  0  0  0  0  0  0  0
    2.6350    1.0300    1.6547 H   0  0  0  0  0  0  0  0  0  0  0  0
   -3.3794    1.1271   -1.4402 H   0  0  0  0  0  0  0  0  0  0  0  0
   -2.4033   -0.2805   -1.8659 H   0  0  0  0  0  0  0  0  0  0  0  0
    2.5503   -1.1670    1.9292 H   0  0  0  0  0  0  0  0  0  0  0  0
    0.9324   -1.0818    2.5839 H   0  0  0  0  0  0  0  0  0  0  0  0
    2.0392    0.8518   -1.8011 H   0  0  0  0  0  0  0  0  0  0  0  0
    1.0794    3.3254    0.7962 H   0  0  0  0  0  0  0  0  0  0  0  0
    1.0854    3.0939   -0.9586 H   0  0  0  0  0  0  0  0  0  0  0  0
    2.5513    2.7877   -0.0216 H   0  0  0  0  0  0  0  0  0  0  0  0
   -3.1716   -2.0338   -0.2782 H   0  0  0  0  0  0  0  0  0  0  0  0
   -4.5428   -0.9874    0.0931 H   0  0  0  0  0  0  0  0  0  0  0  0
   -3.5307   -1.6097    1.4061 H   0  0  0  0  0  0  0  0  0  0  0  0
    3.0015   -2.4897   -1.4019 H   0  0  0  0  0  0  0  0  0  0  0  0
    2.5884   -1.3457   -2.6867 H   0  0  0  0  0  0  0  0  0  0  0  0
    1.4054   -2.5602   -2.1807 H   0  0  0  0  0  0  0  0  0  0  0  0
  1  2  1  0  0  0  0
  1  3  1  0  0  0  0
  1  6  1  0  0  0  0
  1 16  1  0  0  0  0
  2  4  1  0  0  0  0
  2  5  1  0  0  0  0
  2 17  1  0  0  0  0
  3  8  1  0  0  0  0
  3 11  1  0  0  0  0
  3 13  1  0  0  0  0
  4  9  1  0  0  0  0
  4 14  1  0  0  0  0
  4 18  1  0  0  0  0
  5  7  1  0  0  0  0
  5 19  1  0  0  0  0
  5 20  1  0  0  0  0
  6  9  1  0  0  0  0
  6 21  1  0  0  0  0
  6 22  1  0  0  0  0
  7 10  1  0  0  0  0
  7 12  1  0  0  0  0
  7 23  1  0  0  0  0
  8 10  1  0  0  0  0
  8 24  1  0  0  0  0
  8 25  1  0  0  0  0
  9 26  1  0  0  0  0
  9 27  1  0  0  0  0
 10 28  1  0  0  0  0
 10 29  1  0  0  0  0
 11 12  2  0  0  0  0
 11 30  1  0  0  0  0
 12 15  1  0  0  0  0
 13 31  1  0  0  0  0
 13 32  1  0  0  0  0
 13 33  1  0  0  0  0
 14 34  1  0  0  0  0
 14 35  1  0  0  0  0
 14 36  1  0  0  0  0
 15 37  1  0  0  0  0
 15 38  1  0  0  0  0
 15 39  1  0  0  0  0
M  END
> <PUBCHEM_COMPOUND_CID>
25203405

> <PUBCHEM_CONFORMER_RMSD>
0.6

> <PUBCHEM_CONFORMER_DIVERSEORDER>
1
2
4
7
6
5
8
3

> <PUBCHEM_MMFF94_PARTIAL_CHARGES>
6
11 -0.29
12 -0.28
15 0.14
3 0.14
30 0.15
7 0.14

> <PUBCHEM_EFFECTIVE_ROTOR_COUNT>
1.2

> <PUBCHEM_PHARMACOPHORE_FEATURES>
2
5 1 2 4 6 9 rings
9 1 2 3 5 7 8 10 11 12 rings

> <PUBCHEM_HEAVY_ATOM_COUNT>
15

> <PUBCHEM_ATOM_DEF_STEREO_COUNT>
0

> <PUBCHEM_ATOM_UDEF_STEREO_COUNT>
5

> <PUBCHEM_BOND_DEF_STEREO_COUNT>
0

> <PUBCHEM_BOND_UDEF_STEREO_COUNT>
0

> <PUBCHEM_ISOTOPIC_ATOM_COUNT>
0

> <PUBCHEM_COMPONENT_COUNT>
1

> <PUBCHEM_CACTVS_TAUTO_COUNT>
1

> <PUBCHEM_CONFORMER_ID>
018092CD00000001

> <PUBCHEM_MMFF94_ENERGY>
50.4089

> <PUBCHEM_FEATURE_SELFOVERLAP>
10.168

> <PUBCHEM_SHAPE_FINGERPRINT>
10948715 1 17978514461472357649
11067466 332 17677056861912338905
12326174 3 18271231777289258304
12423570 1 14066507130357228024
12524768 44 18263086672586582009
12725867 57 18195511615556236754
13024252 1 16597943223757934806
13299463 15 18042421148285524759
14115302 16 17389374923003776607
144361 1 18193572282950185931
14761567 1 17900541172938797743
14817 1 8022515033997410258
161256 15 18334300898245893781
16945 1 18045190951277920528
17990270 104 18411982459773459597
20511035 2 17979322542636930288
20645477 70 18340766048556497983
20711985 344 17550667716694729948
21501502 16 18040705953459928801
21524375 3 17833827553262449368
21922407 69 16127500758032132457
22802520 49 18119557523944989382
23419403 2 17056944175463374410
23559900 14 17833821682817875642
241688 4 18053673477306637680
2748010 2 18267009570865362673
576247 118 17914346683728551198
5845 1 11533244150694392856
7364860 26 18200881771874617064
81228 2 17479451244846897280

> <PUBCHEM_SHAPE_MULTIPOLES>
308.69
3.83
2.23
1.54
3.26
0.6
0.07
-1.02
0.39
-1.04
0.34
-0.79
-0.35
0.85

> <PUBCHEM_SHAPE_SELFOVERLAP>
652.59

> <PUBCHEM_SHAPE_VOLUME>
169.3

> <PUBCHEM_COORDINATE_TYPE>
2
5
10

$$$$
