101967152
  -OEChem-11232018593D

 40 42  0     1  0  0  0  0  0999 V2000
   -1.3612    0.3986    2.0414 O   0  0  0  0  0  0  0  0  0  0  0  0
    0.1385   -1.0054    0.6721 C   0  0  2  0  0  0  0  0  0  0  0  0
   -0.4951    0.4212    0.8963 C   0  0  1  0  0  0  0  0  0  0  0  0
   -1.3174    0.8333   -0.4212 C   0  0  0  0  0  0  0  0  0  0  0  0
   -1.1320   -0.2922   -1.5039 C   0  0  1  0  0  0  0  0  0  0  0  0
    1.1394   -0.8476   -0.5207 C   0  0  1  0  0  0  0  0  0  0  0  0
    0.3607   -0.5225   -1.8160 C   0  0  0  0  0  0  0  0  0  0  0  0
   -0.9676   -2.0265    0.2898 C   0  0  0  0  0  0  0  0  0  0  0  0
   -1.6774   -1.6347   -1.0012 C   0  0  0  0  0  0  0  0  0  0  0  0
    0.6251    1.4181    1.3105 C   0  0  0  0  0  0  0  0  0  0  0  0
    0.8394   -1.5623    1.9322 C   0  0  0  0  0  0  0  0  0  0  0  0
    2.1716    0.2400   -0.2714 C   0  0  0  0  0  0  0  0  0  0  0  0
   -0.8876    2.1857   -1.0477 C   0  0  0  0  0  0  0  0  0  0  0  0
   -2.8312    1.0151   -0.1213 C   0  0  0  0  0  0  0  0  0  0  0  0
    1.9185    1.2633    0.5630 C   0  0  0  0  0  0  0  0  0  0  0  0
    3.4765    0.1159   -1.0020 C   0  0  0  0  0  0  0  0  0  0  0  0
   -1.6553   -0.0222   -2.4296 H   0  0  0  0  0  0  0  0  0  0  0  0
    1.6688   -1.8009   -0.6551 H   0  0  0  0  0  0  0  0  0  0  0  0
    0.7765    0.3382   -2.3523 H   0  0  0  0  0  0  0  0  0  0  0  0
    0.4609   -1.3668   -2.5114 H   0  0  0  0  0  0  0  0  0  0  0  0
   -1.7045   -2.1107    1.0985 H   0  0  0  0  0  0  0  0  0  0  0  0
   -0.5345   -3.0277    0.1672 H   0  0  0  0  0  0  0  0  0  0  0  0
   -1.5170   -2.4126   -1.7588 H   0  0  0  0  0  0  0  0  0  0  0  0
   -2.7609   -1.6003   -0.8480 H   0  0  0  0  0  0  0  0  0  0  0  0
    0.8535    1.2908    2.3784 H   0  0  0  0  0  0  0  0  0  0  0  0
    0.2744    2.4530    1.2412 H   0  0  0  0  0  0  0  0  0  0  0  0
    1.6603   -0.9317    2.2834 H   0  0  0  0  0  0  0  0  0  0  0  0
    1.2644   -2.5527    1.7313 H   0  0  0  0  0  0  0  0  0  0  0  0
    0.1318   -1.6719    2.7615 H   0  0  0  0  0  0  0  0  0  0  0  0
    0.1709    2.2244   -1.3117 H   0  0  0  0  0  0  0  0  0  0  0  0
   -1.4472    2.3778   -1.9716 H   0  0  0  0  0  0  0  0  0  0  0  0
   -1.0972    3.0239   -0.3740 H   0  0  0  0  0  0  0  0  0  0  0  0
   -3.3998    1.1639   -1.0468 H   0  0  0  0  0  0  0  0  0  0  0  0
   -3.0074    1.8909    0.5140 H   0  0  0  0  0  0  0  0  0  0  0  0
   -3.2627    0.1506    0.3924 H   0  0  0  0  0  0  0  0  0  0  0  0
    2.6741    2.0252    0.7336 H   0  0  0  0  0  0  0  0  0  0  0  0
   -1.6394    1.3115    2.2278 H   0  0  0  0  0  0  0  0  0  0  0  0
    3.9807   -0.8142   -0.7206 H   0  0  0  0  0  0  0  0  0  0  0  0
    4.1558    0.9443   -0.7754 H   0  0  0  0  0  0  0  0  0  0  0  0
    3.3117    0.1081   -2.0840 H   0  0  0  0  0  0  0  0  0  0  0  0
  1  3  1  0  0  0  0
  1 37  1  0  0  0  0
  2  3  1  0  0  0  0
  2  6  1  0  0  0  0
  2  8  1  0  0  0  0
  2 11  1  0  0  0  0
  3  4  1  0  0  0  0
  3 10  1  0  0  0  0
  4  5  1  0  0  0  0
  4 13  1  0  0  0  0
  4 14  1  0  0  0  0
  5  7  1  0  0  0  0
  5  9  1  0  0  0  0
  5 17  1  0  0  0  0
  6  7  1  0  0  0  0
  6 12  1  0  0  0  0
  6 18  1  0  0  0  0
  7 19  1  0  0  0  0
  7 20  1  0  0  0  0
  8  9  1  0  0  0  0
  8 21  1  0  0  0  0
  8 22  1  0  0  0  0
  9 23  1  0  0  0  0
  9 24  1  0  0  0  0
 10 15  1  0  0  0  0
 10 25  1  0  0  0  0
 10 26  1  0  0  0  0
 11 27  1  0  0  0  0
 11 28  1  0  0  0  0
 11 29  1  0  0  0  0
 12 15  2  0  0  0  0
 12 16  1  0  0  0  0
 13 30  1  0  0  0  0
 13 31  1  0  0  0  0
 13 33  1  0  0  0  0
 14 32  1  0  0  0  0
 14 34  1  0  0  0  0
 14 35  1  0  0  0  0
 15 36  1  0  0  0  0
 16 38  1  0  0  0  0
 16 39  1  0  0  0  0
 16 40  1  0  0  0  0
M  END
> <PUBCHEM_COMPOUND_CID>
101967152

> <PUBCHEM_CONFORMER_RMSD>
0.6

> <PUBCHEM_CONFORMER_DIVERSEORDER>
1
2

> <PUBCHEM_MMFF94_PARTIAL_CHARGES>
9
1 -0.68
10 0.14
12 -0.28
15 -0.29
16 0.14
3 0.28
36 0.15
37 0.4
6 0.14

> <PUBCHEM_EFFECTIVE_ROTOR_COUNT>
1

> <PUBCHEM_PHARMACOPHORE_FEATURES>
5
1 1 acceptor
1 1 donor
3 4 13 14 hydrophobe
6 2 3 6 10 12 15 rings
8 2 3 4 5 6 7 8 9 rings

> <PUBCHEM_HEAVY_ATOM_COUNT>
16

> <PUBCHEM_ATOM_DEF_STEREO_COUNT>
3

> <PUBCHEM_ATOM_UDEF_STEREO_COUNT>
1

> <PUBCHEM_BOND_DEF_STEREO_COUNT>
0

> <PUBCHEM_BOND_UDEF_STEREO_COUNT>
0

> <PUBCHEM_ISOTOPIC_ATOM_COUNT>
0

> <PUBCHEM_COMPONENT_COUNT>
1

> <PUBCHEM_CACTVS_TAUTO_COUNT>
1

> <PUBCHEM_CONFORMER_ID>
0613E53000000001

> <PUBCHEM_MMFF94_ENERGY>
70.8634

> <PUBCHEM_FEATURE_SELFOVERLAP>
25.672

> <PUBCHEM_SHAPE_FINGERPRINT>
10702982 57 18336263453144183999
10863032 1 18188495674692980943
10948715 1 18114469946156772437
12423570 1 18124625177484986919
12491281 212 17967248693524592349
12808571 1 17894910681214391708
13024252 1 17531259399555351086
13299463 15 18201152243361302492
141345 1 18044958786667773735
144361 1 18060126687075070637
14817 1 17545379288966192458
15557651 10 18337116661303717141
15775835 57 18336830788285646884
16945 1 18201708566079913653
22344851 341 18056735810331633946
22802520 49 18269832172001465572
23419403 2 17115573485072380779
23559900 14 18131631167747631900
241688 4 18338512074676879873
2748010 2 17631444730146364764
430814 3 17750227019793849044
5084963 1 18340770454638886580
528886 8 17418092070582124836
54276843 12 17330521737818732373

> <PUBCHEM_SHAPE_MULTIPOLES>
323.4
3.17
2
1.83
1.47
0.09
-0.29
-0.74
0.83
-0.6
-0.19
0.04
0.22
-0.13

> <PUBCHEM_SHAPE_SELFOVERLAP>
692.663

> <PUBCHEM_SHAPE_VOLUME>
176.6

> <PUBCHEM_COORDINATE_TYPE>
2
5
10

$$$$
