129848631
  -OEChem-11232019123D

 36 36  0     1  0  0  0  0  0999 V2000
    0.6119    0.1155    1.4559 O   0  0  0  0  0  0  0  0  0  0  0  0
   -0.6384    0.4470   -0.5279 O   0  0  0  0  0  0  0  0  0  0  0  0
    2.8592    1.4172   -0.0064 O   0  0  0  0  0  0  0  0  0  0  0  0
    1.2160   -1.3416   -1.7262 O   0  0  0  0  0  0  0  0  0  0  0  0
    2.3640   -2.8737    0.2721 O   0  0  0  0  0  0  0  0  0  0  0  0
    0.1077    3.1147   -0.5075 O   0  0  0  0  0  0  0  0  0  0  0  0
    0.4844    0.8793    0.2470 C   0  0  2  0  0  0  0  0  0  0  0  0
    1.7606    0.7429   -0.6181 C   0  0  2  0  0  0  0  0  0  0  0  0
    2.1521   -0.7244   -0.8435 C   0  0  1  0  0  0  0  0  0  0  0  0
    2.1622   -1.4832    0.4860 C   0  0  1  0  0  0  0  0  0  0  0  0
    0.8571   -1.2724    1.2404 C   0  0  0  0  0  0  0  0  0  0  0  0
    0.2456    2.3337    0.6633 C   0  0  0  0  0  0  0  0  0  0  0  0
   -1.8417    0.5491    0.2142 C   0  0  0  0  0  0  0  0  0  0  0  0
   -2.8843   -0.3668   -0.4110 C   0  0  1  0  0  0  0  0  0  0  0  0
   -4.2156   -0.2946    0.3313 C   0  0  0  0  0  0  0  0  0  0  0  0
   -5.2408   -1.2428   -0.2697 C   0  0  0  0  0  0  0  0  0  0  0  0
    1.5832    1.2149   -1.5928 H   0  0  0  0  0  0  0  0  0  0  0  0
    3.1399   -0.8087   -1.3111 H   0  0  0  0  0  0  0  0  0  0  0  0
    2.9947   -1.1084    1.0940 H   0  0  0  0  0  0  0  0  0  0  0  0
    0.0084   -1.7387    0.7262 H   0  0  0  0  0  0  0  0  0  0  0  0
    0.9137   -1.7565    2.2218 H   0  0  0  0  0  0  0  0  0  0  0  0
   -0.6347    2.4707    1.2985 H   0  0  0  0  0  0  0  0  0  0  0  0
    1.0911    2.7158    1.2471 H   0  0  0  0  0  0  0  0  0  0  0  0
   -2.2183    1.5766    0.1593 H   0  0  0  0  0  0  0  0  0  0  0  0
   -1.7191    0.2700    1.2665 H   0  0  0  0  0  0  0  0  0  0  0  0
    3.6210    1.3424   -0.6061 H   0  0  0  0  0  0  0  0  0  0  0  0
    1.2388   -0.8519   -2.5659 H   0  0  0  0  0  0  0  0  0  0  0  0
   -3.0220   -0.0983   -1.4660 H   1  0  0  0  0  0  0  0  0  0  0  0
   -2.5056   -1.3967   -0.4112 H   0  0  0  0  0  0  0  0  0  0  0  0
    2.3781   -3.3065    1.1428 H   0  0  0  0  0  0  0  0  0  0  0  0
   -4.6067    0.7289    0.2965 H   0  0  0  0  0  0  0  0  0  0  0  0
   -4.0688   -0.5501    1.3871 H   0  0  0  0  0  0  0  0  0  0  0  0
   -0.0253    4.0355   -0.2248 H   0  0  0  0  0  0  0  0  0  0  0  0
   -4.8938   -2.2797   -0.2182 H   0  0  0  0  0  0  0  0  0  0  0  0
   -6.1868   -1.1738    0.2763 H   0  0  0  0  0  0  0  0  0  0  0  0
   -5.4350   -0.9967   -1.3185 H   0  0  0  0  0  0  0  0  0  0  0  0
  1  7  1  0  0  0  0
  1 11  1  0  0  0  0
  2  7  1  0  0  0  0
  2 13  1  0  0  0  0
  3  8  1  0  0  0  0
  3 26  1  0  0  0  0
  4  9  1  0  0  0  0
  4 27  1  0  0  0  0
  5 10  1  0  0  0  0
  5 30  1  0  0  0  0
  6 12  1  0  0  0  0
  6 33  1  0  0  0  0
  7  8  1  0  0  0  0
  7 12  1  0  0  0  0
  8  9  1  0  0  0  0
  8 17  1  0  0  0  0
  9 10  1  0  0  0  0
  9 18  1  0  0  0  0
 10 11  1  0  0  0  0
 10 19  1  0  0  0  0
 11 20  1  0  0  0  0
 11 21  1  0  0  0  0
 12 22  1  0  0  0  0
 12 23  1  0  0  0  0
 13 14  1  0  0  0  0
 13 24  1  0  0  0  0
 13 25  1  0  0  0  0
 14 15  1  0  0  0  0
 14 28  1  0  0  0  0
 14 29  1  0  0  0  0
 15 16  1  0  0  0  0
 15 31  1  0  0  0  0
 15 32  1  0  0  0  0
 16 34  1  0  0  0  0
 16 35  1  0  0  0  0
 16 36  1  0  0  0  0
M  ISO  1  28   2
M  END
> <PUBCHEM_COMPOUND_CID>
129848631

> <PUBCHEM_CONFORMER_RMSD>
0.8

> <PUBCHEM_CONFORMER_DIVERSEORDER>
2
39
8
41
40
28
52
49
46
7
42
23
43
10
34
18
24
17
44
55
33
25
16
6
21
45
48
5
27
22
50
11
51
54
47
26
1
4
36
38
13
12
20
29
14
32
53
37
31
35
3
15
19
30
9

> <PUBCHEM_MMFF94_PARTIAL_CHARGES>
17
1 -0.56
10 0.28
11 0.28
12 0.28
13 0.28
2 -0.56
26 0.4
27 0.4
3 -0.68
30 0.4
33 0.4
4 -0.68
5 -0.68
6 -0.68
7 0.56
8 0.28
9 0.28

> <PUBCHEM_EFFECTIVE_ROTOR_COUNT>
6.2

> <PUBCHEM_PHARMACOPHORE_FEATURES>
12
1 1 acceptor
1 16 hydrophobe
1 2 acceptor
1 3 acceptor
1 3 donor
1 4 acceptor
1 4 donor
1 5 acceptor
1 5 donor
1 6 acceptor
1 6 donor
6 1 7 8 9 10 11 rings

> <PUBCHEM_HEAVY_ATOM_COUNT>
16

> <PUBCHEM_ATOM_DEF_STEREO_COUNT>
3

> <PUBCHEM_ATOM_UDEF_STEREO_COUNT>
2

> <PUBCHEM_BOND_DEF_STEREO_COUNT>
0

> <PUBCHEM_BOND_UDEF_STEREO_COUNT>
0

> <PUBCHEM_ISOTOPIC_ATOM_COUNT>
1

> <PUBCHEM_COMPONENT_COUNT>
1

> <PUBCHEM_CACTVS_TAUTO_COUNT>
1

> <PUBCHEM_CONFORMER_ID>
07BD553700000002

> <PUBCHEM_MMFF94_ENERGY>
40.7937

> <PUBCHEM_FEATURE_SELFOVERLAP>
60.954

> <PUBCHEM_SHAPE_FINGERPRINT>
11806522 49 18188771635332987122
12423570 1 17623877642147730656
13083527 12 18336252458576370378
14252887 29 18130795559372801031
15001771 113 18046626707210309696
15757776 16 18411984671539224780
16945 1 18261967326726317832
20339313 130 18272656736022057409
20559304 39 17846221107050156081
20645477 70 18269271426020537903
20671657 53 18410011014393132491
20871998 22 18340482279523646241
21452121 199 18189884345004731010
2255824 54 18266460000125647037
23419403 2 17099420616089278426
3060560 45 18265612267732944277
4175511 335 17603857906138362139
54040823 5 18340210777302897131
7364860 26 18200311164363993097
81228 2 17838897032137446673
81539 233 18190739923812099068
94968 8 18335422383074296027

> <PUBCHEM_SHAPE_MULTIPOLES>
294.06
6.29
2.6
1.13
11.81
0.76
0.03
-3.29
0.6
-1.85
-0.08
-0.46
-0.27
-0.21

> <PUBCHEM_SHAPE_SELFOVERLAP>
580.507

> <PUBCHEM_SHAPE_VOLUME>
173.8

> <PUBCHEM_COORDINATE_TYPE>
2
5
10

$$$$
