91752786
  -OEChem-11232019393D

 36 38  0     1  0  0  0  0  0999 V2000
    0.7381   -0.3114    0.7092 C   0  0  1  0  0  0  0  0  0  0  0  0
    2.0940   -0.5986    0.0784 C   0  0  0  0  0  0  0  0  0  0  0  0
    1.6919    0.8281    0.4380 C   0  0  1  0  0  0  0  0  0  0  0  0
   -0.5733   -0.3051   -0.0150 C   0  0  2  0  0  0  0  0  0  0  0  0
   -1.4714    0.8359    0.4965 C   0  0  2  0  0  0  0  0  0  0  0  0
   -1.4341   -1.5429    0.2737 C   0  0  1  0  0  0  0  0  0  0  0  0
    1.3618    1.8810   -0.5820 C   0  0  0  0  0  0  0  0  0  0  0  0
    2.0986   -0.9479   -1.3918 C   0  0  0  0  0  0  0  0  0  0  0  0
    3.1678   -1.3233    0.8487 C   0  0  0  0  0  0  0  0  0  0  0  0
   -2.8442    0.4388   -0.0590 C   0  0  0  0  0  0  0  0  0  0  0  0
   -2.8607   -1.0929   -0.0720 C   0  0  0  0  0  0  0  0  0  0  0  0
   -1.0739    2.2387    0.1220 C   0  0  0  0  0  0  0  0  0  0  0  0
    0.1073    2.6769   -0.3431 C   0  0  0  0  0  0  0  0  0  0  0  0
   -1.0019   -2.7773   -0.5037 C   0  0  0  0  0  0  0  0  0  0  0  0
    0.6148   -0.5847    1.7539 H   0  0  0  0  0  0  0  0  0  0  0  0
    2.1572    1.2737    1.3131 H   0  0  0  0  0  0  0  0  0  0  0  0
   -0.4622   -0.1976   -1.0989 H   0  0  0  0  0  0  0  0  0  0  0  0
   -1.5237    0.7998    1.5945 H   0  0  0  0  0  0  0  0  0  0  0  0
   -1.3966   -1.7831    1.3452 H   0  0  0  0  0  0  0  0  0  0  0  0
    1.3296    1.5090   -1.6089 H   0  0  0  0  0  0  0  0  0  0  0  0
    2.2005    2.5903   -0.5708 H   0  0  0  0  0  0  0  0  0  0  0  0
    4.1573   -1.0807    0.4482 H   0  0  0  0  0  0  0  0  0  0  0  0
    3.0415   -0.6170   -1.8422 H   0  0  0  0  0  0  0  0  0  0  0  0
    1.2937   -0.5304   -1.9959 H   0  0  0  0  0  0  0  0  0  0  0  0
    3.0208   -2.4063    0.7851 H   0  0  0  0  0  0  0  0  0  0  0  0
    2.0440   -2.0361   -1.5109 H   0  0  0  0  0  0  0  0  0  0  0  0
    3.1548   -1.0433    1.9073 H   0  0  0  0  0  0  0  0  0  0  0  0
   -2.9821    0.8143   -1.0809 H   0  0  0  0  0  0  0  0  0  0  0  0
   -3.6603    0.8431    0.5498 H   0  0  0  0  0  0  0  0  0  0  0  0
   -3.5728   -1.4840    0.6632 H   0  0  0  0  0  0  0  0  0  0  0  0
   -3.1807   -1.4527   -1.0566 H   0  0  0  0  0  0  0  0  0  0  0  0
   -1.8523    2.9890    0.2571 H   0  0  0  0  0  0  0  0  0  0  0  0
    0.1839    3.7385   -0.5733 H   0  0  0  0  0  0  0  0  0  0  0  0
   -0.9940   -2.5886   -1.5825 H   0  0  0  0  0  0  0  0  0  0  0  0
   -1.6842   -3.6119   -0.3117 H   0  0  0  0  0  0  0  0  0  0  0  0
    0.0039   -3.0914   -0.2076 H   0  0  0  0  0  0  0  0  0  0  0  0
  1  2  1  0  0  0  0
  1  3  1  0  0  0  0
  1  4  1  0  0  0  0
  1 15  1  0  0  0  0
  2  3  1  0  0  0  0
  2  8  1  0  0  0  0
  2  9  1  0  0  0  0
  3  7  1  0  0  0  0
  3 16  1  0  0  0  0
  4  5  1  0  0  0  0
  4  6  1  0  0  0  0
  4 17  1  0  0  0  0
  5 10  1  0  0  0  0
  5 12  1  0  0  0  0
  5 18  1  0  0  0  0
  6 11  1  0  0  0  0
  6 14  1  0  0  0  0
  6 19  1  0  0  0  0
  7 13  1  0  0  0  0
  7 20  1  0  0  0  0
  7 21  1  0  0  0  0
  8 23  1  0  0  0  0
  8 24  1  0  0  0  0
  8 26  1  0  0  0  0
  9 22  1  0  0  0  0
  9 25  1  0  0  0  0
  9 27  1  0  0  0  0
 10 11  1  0  0  0  0
 10 28  1  0  0  0  0
 10 29  1  0  0  0  0
 11 30  1  0  0  0  0
 11 31  1  0  0  0  0
 12 13  2  0  0  0  0
 12 32  1  0  0  0  0
 13 33  1  0  0  0  0
 14 34  1  0  0  0  0
 14 35  1  0  0  0  0
 14 36  1  0  0  0  0
M  END
> <PUBCHEM_COMPOUND_CID>
91752786

> <PUBCHEM_CONFORMER_RMSD>
0.4

> <PUBCHEM_CONFORMER_DIVERSEORDER>
1
23
21
12
24
19
13
27
22
25
20
29
18
26
11
10
17
7
4
16
15
9
8
28
3
2
14
5
6

> <PUBCHEM_MMFF94_PARTIAL_CHARGES>
14
1 -0.19
12 -0.29
13 -0.29
15 0.1
16 0.1
2 -0.19
3 -0.19
32 0.15
33 0.15
4 0.09
5 0.14
7 0.23
8 0.09
9 0.09

> <PUBCHEM_EFFECTIVE_ROTOR_COUNT>
1

> <PUBCHEM_PHARMACOPHORE_FEATURES>
3
3 2 8 9 hydrophobe
5 4 5 6 10 11 rings
7 1 3 4 5 7 12 13 rings

> <PUBCHEM_HEAVY_ATOM_COUNT>
14

> <PUBCHEM_ATOM_DEF_STEREO_COUNT>
0

> <PUBCHEM_ATOM_UDEF_STEREO_COUNT>
5

> <PUBCHEM_BOND_DEF_STEREO_COUNT>
0

> <PUBCHEM_BOND_UDEF_STEREO_COUNT>
0

> <PUBCHEM_ISOTOPIC_ATOM_COUNT>
0

> <PUBCHEM_COMPONENT_COUNT>
1

> <PUBCHEM_CACTVS_TAUTO_COUNT>
1

> <PUBCHEM_CONFORMER_ID>
0578095200000001

> <PUBCHEM_MMFF94_ENERGY>
38.3772

> <PUBCHEM_FEATURE_SELFOVERLAP>
15.25

> <PUBCHEM_SHAPE_FINGERPRINT>
10353120 184 18262530194985475373
10967382 1 18265894850747822643
11578080 2 17097182014837032564
12423570 1 18272931652188152786
12524768 44 18342463689555238571
13140716 1 18411141312125161361
13172582 1 18338805506995348273
14251711 518 18194684988775757870
14614273 12 17903631882934278205
14817 1 18123757452267701452
15001771 113 18340216287825163201
15219459 52 18338799026095413743
16945 1 18267591203894860137
17990270 104 18196093471765953375
193761 8 18050285074643535587
20511035 2 18057595675690332671
20645476 183 17677352548683059743
20645477 70 17476921724269946511
20871998 184 18048879597956484456
21501502 16 18051130590685563575
22802520 49 17840597993546762758
2334 1 18338801216513053321
23388829 49 17764570406876671576
23402539 116 18198039439822319511
23419403 2 17481654898024615777
23552423 10 18048034369993906147
23559900 14 17552078391015968150
238 59 10350796923718656422
241688 4 18408885105226786809
257057 1 18266720545362649378
2748010 2 18410572885967098345
2897 32 17544757193239716397
5084963 1 18059577932057095553
5255222 1 17548423604782762337
53812654 25 18410003343080466354
7364860 26 18126570260620152616
81228 2 18339084761342254072

> <PUBCHEM_SHAPE_MULTIPOLES>
288.11
3.98
2.89
0.93
0.21
0.6
-0.13
-1.53
0.25
-0.47
-0.45
0.48
-0.17
-0.28

> <PUBCHEM_SHAPE_SELFOVERLAP>
600.507

> <PUBCHEM_SHAPE_VOLUME>
159.9

> <PUBCHEM_COORDINATE_TYPE>
2
5
10

$$$$
