6440942
  -OEChem-11232018343D

 38 39  0     1  0  0  0  0  0999 V2000
    4.9130    0.0099    0.9261 O   0  0  0  0  0  0  0  0  0  0  0  0
   -1.5907    0.2906    1.0095 C   0  0  2  0  0  0  0  0  0  0  0  0
   -2.2190    1.5600    0.4033 C   0  0  1  0  0  0  0  0  0  0  0  0
   -0.7967   -0.4531   -0.0304 C   0  0  0  0  0  0  0  0  0  0  0  0
    0.2960    0.2923   -0.7397 C   0  0  1  0  0  0  0  0  0  0  0  0
   -2.5530   -0.7682    1.5560 C   0  0  0  0  0  0  0  0  0  0  0  0
   -1.0971    2.4138   -0.2311 C   0  0  0  0  0  0  0  0  0  0  0  0
   -0.2529    1.6389   -1.2586 C   0  0  0  0  0  0  0  0  0  0  0  0
   -2.4842   -1.9612    0.6025 C   0  0  0  0  0  0  0  0  0  0  0  0
   -1.2774   -1.6867   -0.2429 C   0  0  0  0  0  0  0  0  0  0  0  0
   -3.3387    1.2937   -0.6116 C   0  0  0  0  0  0  0  0  0  0  0  0
    1.4927    0.4738    0.1458 C   0  0  0  0  0  0  0  0  0  0  0  0
   -0.8106   -2.7174   -1.2095 C   0  0  0  0  0  0  0  0  0  0  0  0
    2.7406    0.0242   -0.0687 C   0  0  0  0  0  0  0  0  0  0  0  0
    3.2397   -0.7645   -1.2378 C   0  0  0  0  0  0  0  0  0  0  0  0
    3.7382    0.3538    0.9874 C   0  0  0  0  0  0  0  0  0  0  0  0
   -0.9277    0.5965    1.8298 H   0  0  0  0  0  0  0  0  0  0  0  0
   -2.6626    2.1438    1.2207 H   0  0  0  0  0  0  0  0  0  0  0  0
    0.5809   -0.2668   -1.6342 H   0  0  0  0  0  0  0  0  0  0  0  0
   -3.5764   -0.4051    1.6912 H   0  0  0  0  0  0  0  0  0  0  0  0
   -2.2105   -1.0884    2.5494 H   0  0  0  0  0  0  0  0  0  0  0  0
   -0.4385    2.7830    0.5654 H   0  0  0  0  0  0  0  0  0  0  0  0
   -1.5255    3.3022   -0.7105 H   0  0  0  0  0  0  0  0  0  0  0  0
   -0.8731    1.4487   -2.1447 H   0  0  0  0  0  0  0  0  0  0  0  0
    0.5709    2.2780   -1.6014 H   0  0  0  0  0  0  0  0  0  0  0  0
   -3.3820   -2.0140   -0.0226 H   0  0  0  0  0  0  0  0  0  0  0  0
   -2.3875   -2.8989    1.1589 H   0  0  0  0  0  0  0  0  0  0  0  0
   -3.7067    2.2369   -1.0302 H   0  0  0  0  0  0  0  0  0  0  0  0
   -3.0078    0.6675   -1.4454 H   0  0  0  0  0  0  0  0  0  0  0  0
   -4.1922    0.7983   -0.1393 H   0  0  0  0  0  0  0  0  0  0  0  0
    1.3043    1.0466    1.0539 H   0  0  0  0  0  0  0  0  0  0  0  0
   -1.5912   -2.9255   -1.9480 H   0  0  0  0  0  0  0  0  0  0  0  0
   -0.5770   -3.6484   -0.6832 H   0  0  0  0  0  0  0  0  0  0  0  0
    0.0897   -2.4127   -1.7490 H   0  0  0  0  0  0  0  0  0  0  0  0
    3.6367   -1.7280   -0.9004 H   0  0  0  0  0  0  0  0  0  0  0  0
    2.4740   -0.9757   -1.9862 H   0  0  0  0  0  0  0  0  0  0  0  0
    4.0444   -0.2204   -1.7438 H   0  0  0  0  0  0  0  0  0  0  0  0
    3.3628    0.9344    1.8471 H   0  0  0  0  0  0  0  0  0  0  0  0
  1 16  2  0  0  0  0
  2  3  1  0  0  0  0
  2  4  1  0  0  0  0
  2  6  1  0  0  0  0
  2 17  1  0  0  0  0
  3  7  1  0  0  0  0
  3 11  1  0  0  0  0
  3 18  1  0  0  0  0
  4  5  1  0  0  0  0
  4 10  2  0  0  0  0
  5  8  1  0  0  0  0
  5 12  1  0  0  0  0
  5 19  1  0  0  0  0
  6  9  1  0  0  0  0
  6 20  1  0  0  0  0
  6 21  1  0  0  0  0
  7  8  1  0  0  0  0
  7 22  1  0  0  0  0
  7 23  1  0  0  0  0
  8 24  1  0  0  0  0
  8 25  1  0  0  0  0
  9 10  1  0  0  0  0
  9 26  1  0  0  0  0
  9 27  1  0  0  0  0
 10 13  1  0  0  0  0
 11 28  1  0  0  0  0
 11 29  1  0  0  0  0
 11 30  1  0  0  0  0
 12 14  2  0  0  0  0
 12 31  1  0  0  0  0
 13 32  1  0  0  0  0
 13 33  1  0  0  0  0
 13 34  1  0  0  0  0
 14 15  1  0  0  0  0
 14 16  1  0  0  0  0
 15 35  1  0  0  0  0
 15 36  1  0  0  0  0
 15 37  1  0  0  0  0
 16 38  1  0  0  0  0
M  END
> <PUBCHEM_COMPOUND_CID>
6440942

> <PUBCHEM_CONFORMER_RMSD>
0.6

> <PUBCHEM_CONFORMER_DIVERSEORDER>
1
9
10
2
8
5
6
7
4
3

> <PUBCHEM_MMFF94_PARTIAL_CHARGES>
13
1 -0.57
10 -0.28
12 -0.29
13 0.14
14 -0.12
15 0.14
16 0.5
2 0.14
31 0.15
38 0.06
4 -0.28
5 0.28
9 0.14

> <PUBCHEM_EFFECTIVE_ROTOR_COUNT>
3.2

> <PUBCHEM_PHARMACOPHORE_FEATURES>
4
1 1 acceptor
1 15 hydrophobe
5 2 4 6 9 10 rings
6 2 3 4 5 7 8 rings

> <PUBCHEM_HEAVY_ATOM_COUNT>
16

> <PUBCHEM_ATOM_DEF_STEREO_COUNT>
3

> <PUBCHEM_ATOM_UDEF_STEREO_COUNT>
0

> <PUBCHEM_BOND_DEF_STEREO_COUNT>
1

> <PUBCHEM_BOND_UDEF_STEREO_COUNT>
0

> <PUBCHEM_ISOTOPIC_ATOM_COUNT>
0

> <PUBCHEM_COMPONENT_COUNT>
1

> <PUBCHEM_CACTVS_TAUTO_COUNT>
1

> <PUBCHEM_CONFORMER_ID>
006247EE00000001

> <PUBCHEM_MMFF94_ENERGY>
24.7712

> <PUBCHEM_FEATURE_SELFOVERLAP>
20.393

> <PUBCHEM_SHAPE_FINGERPRINT>
11132069 177 18336550430011034484
12251169 10 18130794524480744754
12423570 1 12243780326220703909
12553582 1 18122637316260126374
12633257 1 17845941839486039546
12670545 47 18131345341289010216
12824470 246 16371008575975438667
13024252 1 15357694163302984329
13140716 1 18261962937175068857
13296909 8 18340199782286735728
13538477 17 17603875476833609452
15852999 172 18191028902544717917
16945 1 18041570130686328669
19049666 15 17914064105377671014
200 152 15647049382994620016
20279233 1 18201438056539740540
20361792 2 17823413971382510486
20871998 184 18410864260674407007
21296965 67 18191022520075778755
21650355 55 18336543918851053112
22112679 90 17838355316486174711
22182313 1 18048060505518722819
23388829 49 17762338415209815812
23402539 116 18339912771587817221
23419403 2 16412353572472105435
23559900 14 18340215081598457094
257057 1 17694491946569512751
2748010 2 18195551223861055527
4175511 318 17749106651994872285
5706482 22 18410571743510929659
69090 78 18340477881208142205
81228 2 18409165540826328917
90316 7 18336273413289609041

> <PUBCHEM_SHAPE_MULTIPOLES>
323.4
6.14
2.43
1.32
8.07
0.56
-0.04
-0.13
-1.9
-2.16
0.76
0.08
0.2
0.59

> <PUBCHEM_SHAPE_SELFOVERLAP>
665.131

> <PUBCHEM_SHAPE_VOLUME>
187.1

> <PUBCHEM_COORDINATE_TYPE>
2
5
10

$$$$
