5320946
  -OEChem-10022015543D

 34 36  0     0  0  0  0  0  0999 V2000
    0.0899   -0.7719   -0.0008 O   0  0  0  0  0  0  0  0  0  0  0  0
   -4.3249   -2.5164   -0.0020 O   0  0  0  0  0  0  0  0  0  0  0  0
    1.4727    2.6449   -0.0182 O   0  0  0  0  0  0  0  0  0  0  0  0
   -3.7417    2.1958    0.0016 O   0  0  0  0  0  0  0  0  0  0  0  0
   -1.2763    3.0671   -0.0074 O   0  0  0  0  0  0  0  0  0  0  0  0
    6.3671   -1.2481   -0.0064 O   0  0  0  0  0  0  0  0  0  0  0  0
   -1.7889    0.7650    0.0017 C   0  0  0  0  0  0  0  0  0  0  0  0
   -1.2583   -0.5230    0.0011 C   0  0  0  0  0  0  0  0  0  0  0  0
    0.9612    0.3057    0.0107 C   0  0  0  0  0  0  0  0  0  0  0  0
   -0.8691    1.9130   -0.0006 C   0  0  0  0  0  0  0  0  0  0  0  0
    0.5794    1.5960    0.0034 C   0  0  0  0  0  0  0  0  0  0  0  0
    2.3778   -0.1005    0.0062 C   0  0  0  0  0  0  0  0  0  0  0  0
   -3.1725    0.9583    0.0021 C   0  0  0  0  0  0  0  0  0  0  0  0
   -2.1098   -1.6284    0.0006 C   0  0  0  0  0  0  0  0  0  0  0  0
   -3.4919   -1.4396    0.0012 C   0  0  0  0  0  0  0  0  0  0  0  0
   -4.0220   -0.1488    0.0020 C   0  0  0  0  0  0  0  0  0  0  0  0
    3.0549   -0.2843    1.2120 C   0  0  0  0  0  0  0  0  0  0  0  0
    3.0419   -0.3027   -1.2038 C   0  0  0  0  0  0  0  0  0  0  0  0
    4.3955   -0.6696    1.2079 C   0  0  0  0  0  0  0  0  0  0  0  0
    4.3824   -0.6883   -1.2080 C   0  0  0  0  0  0  0  0  0  0  0  0
    5.0593   -0.8716   -0.0021 C   0  0  0  0  0  0  0  0  0  0  0  0
   -5.7268   -2.2525   -0.0012 C   0  0  0  0  0  0  0  0  0  0  0  0
   -1.6992   -2.6350   -0.0008 H   0  0  0  0  0  0  0  0  0  0  0  0
   -5.0875    0.0579    0.0017 H   0  0  0  0  0  0  0  0  0  0  0  0
    2.5505   -0.1312    2.1631 H   0  0  0  0  0  0  0  0  0  0  0  0
    2.5276   -0.1642   -2.1517 H   0  0  0  0  0  0  0  0  0  0  0  0
    4.9114   -0.8095    2.1541 H   0  0  0  0  0  0  0  0  0  0  0  0
    4.8942   -0.8444   -2.1538 H   0  0  0  0  0  0  0  0  0  0  0  0
    2.3815    2.3041   -0.0169 H   0  0  0  0  0  0  0  0  0  0  0  0
   -3.0595    2.8844    0.0067 H   0  0  0  0  0  0  0  0  0  0  0  0
   -6.0378   -1.7294    0.9095 H   0  0  0  0  0  0  0  0  0  0  0  0
   -6.2377   -3.2210   -0.0027 H   0  0  0  0  0  0  0  0  0  0  0  0
   -6.0382   -1.7263   -0.9100 H   0  0  0  0  0  0  0  0  0  0  0  0
    6.6749   -1.3281    0.9128 H   0  0  0  0  0  0  0  0  0  0  0  0
  1  8  1  0  0  0  0
  1  9  1  0  0  0  0
  2 15  1  0  0  0  0
  2 22  1  0  0  0  0
  3 11  1  0  0  0  0
  3 29  1  0  0  0  0
  4 13  1  0  0  0  0
  4 30  1  0  0  0  0
  5 10  2  0  0  0  0
  6 21  1  0  0  0  0
  6 34  1  0  0  0  0
  7  8  1  0  0  0  0
  7 10  1  0  0  0  0
  7 13  2  0  0  0  0
  8 14  2  0  0  0  0
  9 11  2  0  0  0  0
  9 12  1  0  0  0  0
 10 11  1  0  0  0  0
 12 17  2  0  0  0  0
 12 18  1  0  0  0  0
 13 16  1  0  0  0  0
 14 15  1  0  0  0  0
 14 23  1  0  0  0  0
 15 16  2  0  0  0  0
 16 24  1  0  0  0  0
 17 19  1  0  0  0  0
 17 25  1  0  0  0  0
 18 20  2  0  0  0  0
 18 26  1  0  0  0  0
 19 21  2  0  0  0  0
 19 27  1  0  0  0  0
 20 21  1  0  0  0  0
 20 28  1  0  0  0  0
 22 31  1  0  0  0  0
 22 32  1  0  0  0  0
 22 33  1  0  0  0  0
M  END
> <PUBCHEM_COMPOUND_CID>
5320946

> <PUBCHEM_CONFORMER_RMSD>
0.6

> <PUBCHEM_CONFORMER_DIVERSEORDER>
1
2

> <PUBCHEM_MMFF94_PARTIAL_CHARGES>
31
1 -0.16
10 0.47
11 0.09
12 0.03
13 0.08
14 -0.15
15 0.08
16 -0.15
17 -0.15
18 -0.15
19 -0.15
2 -0.36
20 -0.15
21 0.08
22 0.28
23 0.15
24 0.15
25 0.15
26 0.15
27 0.15
28 0.15
29 0.45
3 -0.53
30 0.45
34 0.45
4 -0.53
5 -0.57
6 -0.53
7 0.09
8 0.08
9 0.05

> <PUBCHEM_EFFECTIVE_ROTOR_COUNT>
2

> <PUBCHEM_PHARMACOPHORE_FEATURES>
9
1 1 acceptor
1 2 acceptor
1 3 donor
1 4 donor
1 5 acceptor
1 6 donor
6 1 7 8 9 10 11 rings
6 12 17 18 19 20 21 rings
6 7 8 13 14 15 16 rings

> <PUBCHEM_HEAVY_ATOM_COUNT>
22

> <PUBCHEM_ATOM_DEF_STEREO_COUNT>
0

> <PUBCHEM_ATOM_UDEF_STEREO_COUNT>
0

> <PUBCHEM_BOND_DEF_STEREO_COUNT>
0

> <PUBCHEM_BOND_UDEF_STEREO_COUNT>
0

> <PUBCHEM_ISOTOPIC_ATOM_COUNT>
0

> <PUBCHEM_COMPONENT_COUNT>
1

> <PUBCHEM_CACTVS_TAUTO_COUNT>
48

> <PUBCHEM_CONFORMER_ID>
005130F200000001

> <PUBCHEM_MMFF94_ENERGY>
76.0981

> <PUBCHEM_FEATURE_SELFOVERLAP>
45.7

> <PUBCHEM_SHAPE_FINGERPRINT>
10062212 137 18187367605948986209
10319926 262 18198039423549747402
10411042 1 18338517555746142063
10595046 47 18334299756443891734
10616163 171 18410856516822472654
11046707 91 18409448085408164817
11796584 16 18125159334600778142
12236239 1 17749675091470209982
12363563 72 18338524135045299815
12553582 1 18335136488201496739
13140716 1 18412825802583427481
13288520 33 18410856555556000815
13540713 4 18266441270021650105
13540713 5 18266759028892652869
13675066 3 17846212267474418458
13862211 1 18339641239365996703
14178342 30 18059591139292605331
14386348 63 17917992733585942782
14790565 3 17691976955682281833
15042514 8 18410857629635369937
15196674 1 18410574015227116001
16752209 62 18260823795741381107
16945 1 18338516331337831173
17492 89 17907858753909519607
17804303 29 18413387631170296865
18222031 100 18342173427255074311
18681886 176 18335421284137466766
19141452 34 17775285014714674631
193927 3 18339933713516283171
200 152 16660365840435672036
20028762 73 18058166305558015751
20374829 77 18410575097827763623
20403669 9 18340491152984563287
21033648 29 17203032015684263114
21065201 7 18269834225338867266
21267235 1 18409172134023524307
21279426 13 18335126636437887999
21728266 224 18261101942455982498
2297311 6 18341901770710466566
23366157 5 18042407018139189164
23402539 116 18409164381565077838
23557571 272 18272093777109650862
23559900 14 18339914995679704672
25147074 1 18336845176785206741
3004659 81 18040995171962084862
312423 11 18263093261129918957
335352 9 18410291411686564437
4214541 1 18410573959455597832
465052 167 18267875049973788279
474 4 17096666464327397284
5104073 3 18343301487229676808
559249 180 18261951851753571499
59755656 215 18410290285894163919
67856867 119 18260834834730705996
7970288 3 18410291453682513762
8863177 126 17680441240872359827
9709674 26 18192432094024668795

> <PUBCHEM_SHAPE_MULTIPOLES>
417.53
11.73
2.61
0.88
4.79
1.33
0
-8.57
0
-3.13
-0.01
1.07
-0.15
0.01

> <PUBCHEM_SHAPE_SELFOVERLAP>
928.818

> <PUBCHEM_SHAPE_VOLUME>
222

> <PUBCHEM_COORDINATE_TYPE>
2
5
10

$$$$
