5316262
  -OEChem-09292014483D

 51 53  0     1  0  0  0  0  0999 V2000
   -2.0141   -2.7487    0.9602 O   0  0  0  0  0  0  0  0  0  0  0  0
    0.4234   -3.4734    1.7620 O   0  0  0  0  0  0  0  0  0  0  0  0
   -2.9990   -4.0547   -1.2289 O   0  0  0  0  0  0  0  0  0  0  0  0
   -3.8165    3.1756   -0.0461 O   0  0  0  0  0  0  0  0  0  0  0  0
   -1.6550    3.6630    1.6314 O   0  0  0  0  0  0  0  0  0  0  0  0
    3.6905    1.2516   -2.0414 O   0  0  0  0  0  0  0  0  0  0  0  0
    5.4083    1.3622    0.1403 O   0  0  0  0  0  0  0  0  0  0  0  0
    0.0495   -2.0920   -0.1514 C   0  0  1  0  0  0  0  0  0  0  0  0
   -1.4391   -2.4884   -0.3245 C   0  0  2  0  0  0  0  0  0  0  0  0
    0.2015   -0.8023    0.7248 C   0  0  2  0  0  0  0  0  0  0  0  0
   -2.2028   -1.3324   -0.9928 C   0  0  0  0  0  0  0  0  0  0  0  0
   -0.8859    0.2473    0.5035 C   0  0  0  0  0  0  0  0  0  0  0  0
   -2.0086   -0.0094   -0.3001 C   0  0  0  0  0  0  0  0  0  0  0  0
    0.8884   -3.2354    0.4509 C   0  0  0  0  0  0  0  0  0  0  0  0
   -1.6195   -3.7554   -1.1724 C   0  0  0  0  0  0  0  0  0  0  0  0
    1.6061   -0.2175    0.5638 C   0  0  0  0  0  0  0  0  0  0  0  0
   -0.8033    1.4888    1.1650 C   0  0  0  0  0  0  0  0  0  0  0  0
   -2.9757    0.9935   -0.4883 C   0  0  0  0  0  0  0  0  0  0  0  0
    2.0127    0.2550   -0.6768 C   0  0  0  0  0  0  0  0  0  0  0  0
    2.4566   -0.1671    1.6602 C   0  0  0  0  0  0  0  0  0  0  0  0
   -1.7775    2.4710    0.9843 C   0  0  0  0  0  0  0  0  0  0  0  0
   -2.8599    2.2265    0.1490 C   0  0  0  0  0  0  0  0  0  0  0  0
    3.2935    0.7877   -0.8238 C   0  0  0  0  0  0  0  0  0  0  0  0
    3.7372    0.3654    1.5133 C   0  0  0  0  0  0  0  0  0  0  0  0
    4.1557    0.8429    0.2714 C   0  0  0  0  0  0  0  0  0  0  0  0
   -3.6155    4.0874   -1.1247 C   0  0  0  0  0  0  0  0  0  0  0  0
    2.7491    1.1586   -3.1090 C   0  0  0  0  0  0  0  0  0  0  0  0
    0.4446   -1.9076   -1.1598 H   0  0  0  0  0  0  0  0  0  0  0  0
    0.0689   -1.0904    1.7775 H   0  0  0  0  0  0  0  0  0  0  0  0
   -3.2779   -1.5539   -0.9990 H   0  0  0  0  0  0  0  0  0  0  0  0
   -1.8782   -1.2149   -2.0348 H   0  0  0  0  0  0  0  0  0  0  0  0
    1.9455   -2.9592    0.5105 H   0  0  0  0  0  0  0  0  0  0  0  0
    0.8440   -4.1590   -0.1312 H   0  0  0  0  0  0  0  0  0  0  0  0
   -1.1322   -4.6298   -0.7337 H   0  0  0  0  0  0  0  0  0  0  0  0
   -1.2432   -3.6190   -2.1910 H   0  0  0  0  0  0  0  0  0  0  0  0
    0.0308    1.6998    1.8308 H   0  0  0  0  0  0  0  0  0  0  0  0
   -2.9793   -2.8013    0.8606 H   0  0  0  0  0  0  0  0  0  0  0  0
   -3.8334    0.8034   -1.1305 H   0  0  0  0  0  0  0  0  0  0  0  0
    1.3000    0.1994   -1.4918 H   0  0  0  0  0  0  0  0  0  0  0  0
    2.1436   -0.5361    2.6327 H   0  0  0  0  0  0  0  0  0  0  0  0
   -0.4533   -3.8880    1.6985 H   0  0  0  0  0  0  0  0  0  0  0  0
   -3.2689   -4.3849   -0.3554 H   0  0  0  0  0  0  0  0  0  0  0  0
    4.4041    0.4057    2.3703 H   0  0  0  0  0  0  0  0  0  0  0  0
   -2.4326    4.2092    1.4236 H   0  0  0  0  0  0  0  0  0  0  0  0
   -3.6095    3.5527   -2.0798 H   0  0  0  0  0  0  0  0  0  0  0  0
   -2.6786    4.6390   -0.9978 H   0  0  0  0  0  0  0  0  0  0  0  0
   -4.4438    4.8012   -1.1286 H   0  0  0  0  0  0  0  0  0  0  0  0
    5.5275    1.6434   -0.7836 H   0  0  0  0  0  0  0  0  0  0  0  0
    1.8614    1.7716   -2.9191 H   0  0  0  0  0  0  0  0  0  0  0  0
    2.4972    0.1170   -3.3363 H   0  0  0  0  0  0  0  0  0  0  0  0
    3.2330    1.5696   -4.0012 H   0  0  0  0  0  0  0  0  0  0  0  0
  1  9  1  0  0  0  0
  1 37  1  0  0  0  0
  2 14  1  0  0  0  0
  2 41  1  0  0  0  0
  3 15  1  0  0  0  0
  3 42  1  0  0  0  0
  4 22  1  0  0  0  0
  4 26  1  0  0  0  0
  5 21  1  0  0  0  0
  5 44  1  0  0  0  0
  6 23  1  0  0  0  0
  6 27  1  0  0  0  0
  7 25  1  0  0  0  0
  7 48  1  0  0  0  0
  8  9  1  0  0  0  0
  8 10  1  0  0  0  0
  8 14  1  0  0  0  0
  8 28  1  0  0  0  0
  9 11  1  0  0  0  0
  9 15  1  0  0  0  0
 10 12  1  0  0  0  0
 10 16  1  0  0  0  0
 10 29  1  0  0  0  0
 11 13  1  0  0  0  0
 11 30  1  0  0  0  0
 11 31  1  0  0  0  0
 12 13  1  0  0  0  0
 12 17  2  0  0  0  0
 13 18  2  0  0  0  0
 14 32  1  0  0  0  0
 14 33  1  0  0  0  0
 15 34  1  0  0  0  0
 15 35  1  0  0  0  0
 16 19  2  0  0  0  0
 16 20  1  0  0  0  0
 17 21  1  0  0  0  0
 17 36  1  0  0  0  0
 18 22  1  0  0  0  0
 18 38  1  0  0  0  0
 19 23  1  0  0  0  0
 19 39  1  0  0  0  0
 20 24  2  0  0  0  0
 20 40  1  0  0  0  0
 21 22  2  0  0  0  0
 23 25  2  0  0  0  0
 24 25  1  0  0  0  0
 24 43  1  0  0  0  0
 26 45  1  0  0  0  0
 26 46  1  0  0  0  0
 26 47  1  0  0  0  0
 27 49  1  0  0  0  0
 27 50  1  0  0  0  0
 27 51  1  0  0  0  0
M  END
> <PUBCHEM_COMPOUND_CID>
5316262

> <PUBCHEM_CONFORMER_RMSD>
0.8

> <PUBCHEM_CONFORMER_DIVERSEORDER>
1
11
13
5
14
2
12
8
10
4
9
3
6
7

> <PUBCHEM_MMFF94_PARTIAL_CHARGES>
36
1 -0.68
10 0.29
11 0.14
12 -0.14
13 -0.14
14 0.28
15 0.28
16 -0.14
17 -0.15
18 -0.15
19 -0.15
2 -0.68
20 -0.15
21 0.08
22 0.08
23 0.08
24 -0.15
25 0.08
26 0.28
27 0.28
3 -0.68
36 0.15
37 0.4
38 0.15
39 0.15
4 -0.36
40 0.15
41 0.4
42 0.4
43 0.15
44 0.45
48 0.45
5 -0.53
6 -0.36
7 -0.53
9 0.28

> <PUBCHEM_EFFECTIVE_ROTOR_COUNT>
5.8

> <PUBCHEM_PHARMACOPHORE_FEATURES>
13
1 1 acceptor
1 1 donor
1 2 acceptor
1 2 donor
1 3 acceptor
1 3 donor
1 4 acceptor
1 5 donor
1 6 acceptor
1 7 donor
6 12 13 17 18 21 22 rings
6 16 19 20 23 24 25 rings
6 8 9 10 11 12 13 rings

> <PUBCHEM_HEAVY_ATOM_COUNT>
27

> <PUBCHEM_ATOM_DEF_STEREO_COUNT>
3

> <PUBCHEM_ATOM_UDEF_STEREO_COUNT>
0

> <PUBCHEM_BOND_DEF_STEREO_COUNT>
0

> <PUBCHEM_BOND_UDEF_STEREO_COUNT>
0

> <PUBCHEM_ISOTOPIC_ATOM_COUNT>
0

> <PUBCHEM_COMPONENT_COUNT>
1

> <PUBCHEM_CACTVS_TAUTO_COUNT>
26

> <PUBCHEM_CONFORMER_ID>
00511EA600000001

> <PUBCHEM_MMFF94_ENERGY>
104.8489

> <PUBCHEM_FEATURE_SELFOVERLAP>
66.021

> <PUBCHEM_SHAPE_FINGERPRINT>
10411042 1 17836352019006576611
10764073 3 15116264486629095747
1100329 8 18197492038399414075
11477941 20 17474427988922013964
11582403 64 16195027226308539914
11640471 11 18113901559075447516
11725454 13 16483832685828250530
12160290 23 18195553538526375864
12173636 292 18335983150725063972
12553582 1 17906460174701958322
12788726 201 18191881229824505255
13009979 54 18189032322741968610
13140716 1 18122895697656356123
133893 2 17544780931508397249
13583140 156 17417232339359234674
13681431 1 17190670498521444139
13965767 371 17897430719322159304
14142880 1 18187358844115781189
15463212 79 18334288786364604032
15475509 35 12029488993476907109
15475509 8 17841175521305625615
16752209 62 18192140710580024890
1813 80 17696206072259812967
20600515 1 17551527960263979922
20642791 105 18262785358913520089
20739085 24 17330548748763042978
21033650 10 18265915694978380462
21285901 2 17701274756491897534
21304303 282 18125126455908021015
22149856 69 18054228718971176017
2255824 54 17764307236997816131
22907989 373 18198081337254685596
23366157 5 17474956420291289241
23419403 2 16913952992849982195
23557571 272 17988926725213600232
23558518 356 18260269668073233778
23559900 14 17628338394991673114
23598288 3 18335693953397512714
283562 15 18264478662570857354
350125 39 18196942063030705435
394222 165 17972865974367381395
469060 322 18264224650163079433
474 4 18044940069237377217
484985 159 16191775944814035270
5845 1 16177927312019619338
6523845 18 18052853293035241724
81228 2 18126863813129192162
9981440 41 18337943515591129458

> <PUBCHEM_SHAPE_MULTIPOLES>
514.56
7.15
5.25
1.89
4.94
3.12
0.97
-6.98
1.4
-6.38
0.43
1.49
-0.57
-1.46

> <PUBCHEM_SHAPE_SELFOVERLAP>
1110.799

> <PUBCHEM_SHAPE_VOLUME>
281.4

> <PUBCHEM_COORDINATE_TYPE>
2
5
10

$$$$
