75201659
  -OEChem-09292014383D

 47 46  0     0  0  0  0  0  0999 V2000
   -2.2743    2.9423    0.9611 O   0  0  0  0  0  0  0  0  0  0  0  0
    8.8677   -1.3392   -0.0923 O   0  0  0  0  0  0  0  0  0  0  0  0
    7.1580   -2.4515    0.9043 O   0  0  0  0  0  0  0  0  0  0  0  0
   -4.6414   -0.3831   -0.1863 C   0  0  0  0  0  0  0  0  0  0  0  0
   -6.1266   -0.3298    0.1783 C   0  0  0  0  0  0  0  0  0  0  0  0
   -3.8660    0.8649    0.2421 C   0  0  0  0  0  0  0  0  0  0  0  0
   -6.8487   -1.6091   -0.2503 C   0  0  0  0  0  0  0  0  0  0  0  0
   -2.3724    0.7805   -0.0575 C   0  0  0  0  0  0  0  0  0  0  0  0
    4.3786    0.6287   -0.4952 C   0  0  0  0  0  0  0  0  0  0  0  0
    2.8832    0.4838   -0.1942 C   0  0  0  0  0  0  0  0  0  0  0  0
   -8.3244   -1.5739    0.1470 C   0  0  0  0  0  0  0  0  0  0  0  0
    5.2263   -0.5167    0.0693 C   0  0  0  0  0  0  0  0  0  0  0  0
    2.0270    1.5906   -0.8146 C   0  0  0  0  0  0  0  0  0  0  0  0
   -1.6642    2.0527    0.3647 C   0  0  0  0  0  0  0  0  0  0  0  0
    6.7047   -0.3830   -0.3009 C   0  0  0  0  0  0  0  0  0  0  0  0
    0.5657    1.3593   -0.5461 C   0  0  0  0  0  0  0  0  0  0  0  0
   -9.0385   -2.8567   -0.2478 C   0  0  0  0  0  0  0  0  0  0  0  0
   -0.2148    2.2488    0.0811 C   0  0  0  0  0  0  0  0  0  0  0  0
    7.5603   -1.5085    0.2375 C   0  0  0  0  0  0  0  0  0  0  0  0
   -4.1873   -1.2637    0.2852 H   0  0  0  0  0  0  0  0  0  0  0  0
   -4.5373   -0.5157   -1.2704 H   0  0  0  0  0  0  0  0  0  0  0  0
   -6.5923    0.5377   -0.3044 H   0  0  0  0  0  0  0  0  0  0  0  0
   -6.2313   -0.1929    1.2614 H   0  0  0  0  0  0  0  0  0  0  0  0
   -4.0134    1.0219    1.3185 H   0  0  0  0  0  0  0  0  0  0  0  0
   -4.2959    1.7405   -0.2612 H   0  0  0  0  0  0  0  0  0  0  0  0
   -6.7619   -1.7352   -1.3364 H   0  0  0  0  0  0  0  0  0  0  0  0
   -6.3652   -2.4766    0.2154 H   0  0  0  0  0  0  0  0  0  0  0  0
   -1.9300   -0.0628    0.4837 H   0  0  0  0  0  0  0  0  0  0  0  0
   -2.2272    0.6365   -1.1336 H   0  0  0  0  0  0  0  0  0  0  0  0
    4.7383    1.5813   -0.0874 H   0  0  0  0  0  0  0  0  0  0  0  0
    4.5197    0.6755   -1.5822 H   0  0  0  0  0  0  0  0  0  0  0  0
    2.7369    0.4734    0.8936 H   0  0  0  0  0  0  0  0  0  0  0  0
    2.5419   -0.4916   -0.5651 H   0  0  0  0  0  0  0  0  0  0  0  0
   -8.4156   -1.4322    1.2302 H   0  0  0  0  0  0  0  0  0  0  0  0
   -8.8191   -0.7224   -0.3346 H   0  0  0  0  0  0  0  0  0  0  0  0
    5.1210   -0.5458    1.1609 H   0  0  0  0  0  0  0  0  0  0  0  0
    4.8435   -1.4739   -0.3064 H   0  0  0  0  0  0  0  0  0  0  0  0
    2.3507    2.5649   -0.4294 H   0  0  0  0  0  0  0  0  0  0  0  0
    2.1796    1.6086   -1.9003 H   0  0  0  0  0  0  0  0  0  0  0  0
    7.0967    0.5589    0.0990 H   0  0  0  0  0  0  0  0  0  0  0  0
    6.8100   -0.3746   -1.3916 H   0  0  0  0  0  0  0  0  0  0  0  0
    0.1563    0.4184   -0.9021 H   0  0  0  0  0  0  0  0  0  0  0  0
   -8.5881   -3.7243    0.2450 H   0  0  0  0  0  0  0  0  0  0  0  0
   -8.9928   -3.0138   -1.3302 H   0  0  0  0  0  0  0  0  0  0  0  0
  -10.0922   -2.8093    0.0444 H   0  0  0  0  0  0  0  0  0  0  0  0
    0.2021    3.1902    0.4284 H   0  0  0  0  0  0  0  0  0  0  0  0
    9.4302   -2.0603    0.2622 H   0  0  0  0  0  0  0  0  0  0  0  0
  1 14  2  0  0  0  0
  2 19  1  0  0  0  0
  2 47  1  0  0  0  0
  3 19  2  0  0  0  0
  4  5  1  0  0  0  0
  4  6  1  0  0  0  0
  4 20  1  0  0  0  0
  4 21  1  0  0  0  0
  5  7  1  0  0  0  0
  5 22  1  0  0  0  0
  5 23  1  0  0  0  0
  6  8  1  0  0  0  0
  6 24  1  0  0  0  0
  6 25  1  0  0  0  0
  7 11  1  0  0  0  0
  7 26  1  0  0  0  0
  7 27  1  0  0  0  0
  8 14  1  0  0  0  0
  8 28  1  0  0  0  0
  8 29  1  0  0  0  0
  9 10  1  0  0  0  0
  9 12  1  0  0  0  0
  9 30  1  0  0  0  0
  9 31  1  0  0  0  0
 10 13  1  0  0  0  0
 10 32  1  0  0  0  0
 10 33  1  0  0  0  0
 11 17  1  0  0  0  0
 11 34  1  0  0  0  0
 11 35  1  0  0  0  0
 12 15  1  0  0  0  0
 12 36  1  0  0  0  0
 12 37  1  0  0  0  0
 13 16  1  0  0  0  0
 13 38  1  0  0  0  0
 13 39  1  0  0  0  0
 14 18  1  0  0  0  0
 15 19  1  0  0  0  0
 15 40  1  0  0  0  0
 15 41  1  0  0  0  0
 16 18  2  0  0  0  0
 16 42  1  0  0  0  0
 17 43  1  0  0  0  0
 17 44  1  0  0  0  0
 17 45  1  0  0  0  0
 18 46  1  0  0  0  0
M  END
> <PUBCHEM_COMPOUND_CID>
75201659

> <PUBCHEM_CONFORMER_RMSD>
1.2

> <PUBCHEM_CONFORMER_DIVERSEORDER>
1
26
40
68
50
5
91
142
118
43
57
58
79
22
38
35
18
54
61
14
136
72
31
10
90
27
139
119
59
46
42
76
45
126
85
75
32
128
47
120
87
24
103
33
143
117
56
123
53
102
3
99
95
39
131
129
97
55
28
84
29
4
111
108
66
114
49
9
93
83
74
113
133
67
51
71
62
13
19
121
20
134
73
41
15
92
89
36
23
101
78
140
137
138
30
44
104
86
105
107
112
2
52
77
100
96
80
141
6
16
8
37
63
48
25
122
12
110
115
34
88
70
65
17
98
125
132
106
81
82
94
21
124
116
60
127
7
109
135
130
11
69
64

> <PUBCHEM_MMFF94_PARTIAL_CHARGES>
13
1 -0.57
13 0.14
14 0.49
15 0.06
16 -0.29
18 -0.14
19 0.66
2 -0.65
3 -0.57
42 0.15
46 0.15
47 0.5
8 0.06

> <PUBCHEM_EFFECTIVE_ROTOR_COUNT>
13

> <PUBCHEM_PHARMACOPHORE_FEATURES>
9
1 1 acceptor
1 17 hydrophobe
1 2 acceptor
1 3 acceptor
3 10 13 16 hydrophobe
3 2 3 19 anion
3 4 6 8 hydrophobe
3 5 7 11 hydrophobe
3 9 12 15 hydrophobe

> <PUBCHEM_HEAVY_ATOM_COUNT>
19

> <PUBCHEM_ATOM_DEF_STEREO_COUNT>
0

> <PUBCHEM_ATOM_UDEF_STEREO_COUNT>
0

> <PUBCHEM_BOND_DEF_STEREO_COUNT>
1

> <PUBCHEM_BOND_UDEF_STEREO_COUNT>
0

> <PUBCHEM_ISOTOPIC_ATOM_COUNT>
0

> <PUBCHEM_COMPONENT_COUNT>
1

> <PUBCHEM_CACTVS_TAUTO_COUNT>
5

> <PUBCHEM_CONFORMER_ID>
047B7C7B00000001

> <PUBCHEM_MMFF94_ENERGY>
6.5985

> <PUBCHEM_FEATURE_SELFOVERLAP>
45.745

> <PUBCHEM_SHAPE_FINGERPRINT>
10411042 1 18411701010947322249
106641 1 18273209803999672224
10753850 27 18408884070725191553
11273773 46 18113903806034706691
11386260 185 15719679856691973934
11973863 73 18335148540692152089
13668630 136 18113897165012401061
13862211 1 18412268358946527141
14026016 60 16009295527611898834
14251757 52 10231761084654899286
14428016 86 8935006974866015364
14617042 71 8646501726163273271
15188451 53 18411419497146529196
15690457 1 18409728478016440550
15706992 2 11023828417960460207
1768 124 18341051822753644110
1768 4 8862950507270218279
2026 5 18261390018555379627
20281389 69 11959733750895372312
20526848 3 9727633907992218220
21095123 293 12031785885967122914
21130935 74 18198340651276444858
21130991 4 18261105275039926547
21197605 99 18341332202798758206
21267235 1 18410576201797843493
21307412 95 17386290999779674539
21360443 89 18334851698623214170
21585482 111 10375610182755212683
22224240 67 14549017680494948725
22288116 15 12685386205317013505
23389318 12 17967541177636541692
23524908 199 11963657899785109912
270888 7 9583519815107019325
3014063 24 18187646878050553260
306946 40 14261080832037267867
406291 66 18409165510772588091
5470011 282 17313675952454959446
559249 180 18409730630338621653
5718773 13 18409730659754052449
59682541 35 17846775222297865602
59682541 52 15213292036999335000
6327066 14 8430317935409584097
6438161 24 18335980960745403933
96874 4 18335416859451110130
9953998 17 14692567737169226541

> <PUBCHEM_SHAPE_MULTIPOLES>
373.4
30.23
2.99
0.77
0.3
0.02
0.01
-36.88
0.77
-1.85
0.49
0.2
0.11
-1.8

> <PUBCHEM_SHAPE_SELFOVERLAP>
694.891

> <PUBCHEM_SHAPE_VOLUME>
232.8

> <PUBCHEM_COORDINATE_TYPE>
2
5
10

$$$$
