1449
  -OEChem-09022012053D

 52 51  0     0  0  0  0  0  0999 V2000
   10.7502    0.4844   -0.4278 O   0  0  0  0  0  0  0  0  0  0  0  0
    9.7118   -1.5112   -0.0833 O   0  0  0  0  0  0  0  0  0  0  0  0
   -0.5462   -0.2433    0.3014 C   0  0  0  0  0  0  0  0  0  0  0  0
    0.7540    0.5657    0.2782 C   0  0  0  0  0  0  0  0  0  0  0  0
   -1.8040    0.6190    0.1707 C   0  0  0  0  0  0  0  0  0  0  0  0
    2.0503   -0.2514    0.3252 C   0  0  0  0  0  0  0  0  0  0  0  0
   -3.0626   -0.2503    0.1163 C   0  0  0  0  0  0  0  0  0  0  0  0
    3.3512    0.5532    0.2432 C   0  0  0  0  0  0  0  0  0  0  0  0
   -4.3581    0.5528   -0.0378 C   0  0  0  0  0  0  0  0  0  0  0  0
    4.6079   -0.3205    0.2414 C   0  0  0  0  0  0  0  0  0  0  0  0
   -5.6544   -0.2645   -0.0672 C   0  0  0  0  0  0  0  0  0  0  0  0
    5.8685    0.5302    0.0650 C   0  0  0  0  0  0  0  0  0  0  0  0
   -6.9187    0.5920   -0.1696 C   0  0  0  0  0  0  0  0  0  0  0  0
    7.1576   -0.2945    0.0268 C   0  0  0  0  0  0  0  0  0  0  0  0
   -8.1817   -0.2752   -0.1117 C   0  0  0  0  0  0  0  0  0  0  0  0
    8.4095    0.5465   -0.2205 C   0  0  0  0  0  0  0  0  0  0  0  0
   -9.4690    0.5490   -0.1791 C   0  0  0  0  0  0  0  0  0  0  0  0
    9.6588   -0.2998   -0.2332 C   0  0  0  0  0  0  0  0  0  0  0  0
  -10.6719   -0.2956   -0.1364 C   0  0  0  0  0  0  0  0  0  0  0  0
  -11.6532   -0.9864   -0.1015 C   0  0  0  0  0  0  0  0  0  0  0  0
   -0.5929   -0.8199    1.2334 H   0  0  0  0  0  0  0  0  0  0  0  0
   -0.5212   -0.9710   -0.5193 H   0  0  0  0  0  0  0  0  0  0  0  0
    0.7500    1.2664    1.1226 H   0  0  0  0  0  0  0  0  0  0  0  0
    0.7675    1.1795   -0.6315 H   0  0  0  0  0  0  0  0  0  0  0  0
   -1.7410    1.2262   -0.7402 H   0  0  0  0  0  0  0  0  0  0  0  0
   -1.8666    1.3110    1.0187 H   0  0  0  0  0  0  0  0  0  0  0  0
    2.0332   -0.9728   -0.5017 H   0  0  0  0  0  0  0  0  0  0  0  0
    2.0578   -0.8426    1.2495 H   0  0  0  0  0  0  0  0  0  0  0  0
   -2.9834   -0.9548   -0.7209 H   0  0  0  0  0  0  0  0  0  0  0  0
   -3.1249   -0.8528    1.0309 H   0  0  0  0  0  0  0  0  0  0  0  0
    3.3939    1.2529    1.0868 H   0  0  0  0  0  0  0  0  0  0  0  0
    3.3309    1.1602   -0.6705 H   0  0  0  0  0  0  0  0  0  0  0  0
   -4.2971    1.1454   -0.9594 H   0  0  0  0  0  0  0  0  0  0  0  0
   -4.4194    1.2732    0.7880 H   0  0  0  0  0  0  0  0  0  0  0  0
    4.6679   -0.8834    1.1803 H   0  0  0  0  0  0  0  0  0  0  0  0
    4.5452   -1.0524   -0.5727 H   0  0  0  0  0  0  0  0  0  0  0  0
   -5.6177   -0.9624   -0.9126 H   0  0  0  0  0  0  0  0  0  0  0  0
   -5.7041   -0.8743    0.8436 H   0  0  0  0  0  0  0  0  0  0  0  0
    5.9330    1.2590    0.8824 H   0  0  0  0  0  0  0  0  0  0  0  0
    5.7870    1.1050   -0.8660 H   0  0  0  0  0  0  0  0  0  0  0  0
   -6.9026    1.1621   -1.1061 H   0  0  0  0  0  0  0  0  0  0  0  0
   -6.9372    1.3177    0.6523 H   0  0  0  0  0  0  0  0  0  0  0  0
    7.0744   -1.0562   -0.7591 H   0  0  0  0  0  0  0  0  0  0  0  0
    7.2630   -0.8394    0.9736 H   0  0  0  0  0  0  0  0  0  0  0  0
   -8.1767   -0.8650    0.8142 H   0  0  0  0  0  0  0  0  0  0  0  0
   -8.1644   -0.9961   -0.9395 H   0  0  0  0  0  0  0  0  0  0  0  0
    8.3284    1.0552   -1.1873 H   0  0  0  0  0  0  0  0  0  0  0  0
    8.5104    1.2967    0.5716 H   0  0  0  0  0  0  0  0  0  0  0  0
   -9.4940    1.2587    0.6562 H   0  0  0  0  0  0  0  0  0  0  0  0
   -9.4759    1.1426   -1.1009 H   0  0  0  0  0  0  0  0  0  0  0  0
   11.5798   -0.0391   -0.4360 H   0  0  0  0  0  0  0  0  0  0  0  0
  -12.5235   -1.5993   -0.0704 H   0  0  0  0  0  0  0  0  0  0  0  0
  1 18  1  0  0  0  0
  1 51  1  0  0  0  0
  2 18  2  0  0  0  0
  3  4  1  0  0  0  0
  3  5  1  0  0  0  0
  3 21  1  0  0  0  0
  3 22  1  0  0  0  0
  4  6  1  0  0  0  0
  4 23  1  0  0  0  0
  4 24  1  0  0  0  0
  5  7  1  0  0  0  0
  5 25  1  0  0  0  0
  5 26  1  0  0  0  0
  6  8  1  0  0  0  0
  6 27  1  0  0  0  0
  6 28  1  0  0  0  0
  7  9  1  0  0  0  0
  7 29  1  0  0  0  0
  7 30  1  0  0  0  0
  8 10  1  0  0  0  0
  8 31  1  0  0  0  0
  8 32  1  0  0  0  0
  9 11  1  0  0  0  0
  9 33  1  0  0  0  0
  9 34  1  0  0  0  0
 10 12  1  0  0  0  0
 10 35  1  0  0  0  0
 10 36  1  0  0  0  0
 11 13  1  0  0  0  0
 11 37  1  0  0  0  0
 11 38  1  0  0  0  0
 12 14  1  0  0  0  0
 12 39  1  0  0  0  0
 12 40  1  0  0  0  0
 13 15  1  0  0  0  0
 13 41  1  0  0  0  0
 13 42  1  0  0  0  0
 14 16  1  0  0  0  0
 14 43  1  0  0  0  0
 14 44  1  0  0  0  0
 15 17  1  0  0  0  0
 15 45  1  0  0  0  0
 15 46  1  0  0  0  0
 16 18  1  0  0  0  0
 16 47  1  0  0  0  0
 16 48  1  0  0  0  0
 17 19  1  0  0  0  0
 17 49  1  0  0  0  0
 17 50  1  0  0  0  0
 19 20  3  0  0  0  0
 20 52  1  0  0  0  0
M  END
> <PUBCHEM_COMPOUND_CID>
1449

> <PUBCHEM_CONFORMER_RMSD>
1.4

> <PUBCHEM_CONFORMER_DIVERSEORDER>
1
71
34
59
84
30
17
36
9
49
80
85
62
23
15
5
29
64
19
72
11
82
63
60
13
74
65
101
43
100
14
42
105
89
87
96
55
26
18
12
94
40
90
24
8
45
7
61
86
20
97
95
37
107
102
25
22
93
78
52
6
32
67
50
4
54
58
27
44
77
83
38
48
66
21
3
98
39
76
73
51
70
103
57
28
91
104
69
41
10
16
47
92
79
46
68
2
81
88
35
33
99
75
31
56
53
106

> <PUBCHEM_MMFF94_PARTIAL_CHARGES>
9
1 -0.65
16 0.06
17 0.2
18 0.66
19 -0.2
2 -0.57
20 -0.18
51 0.5
52 0.18

> <PUBCHEM_EFFECTIVE_ROTOR_COUNT>
15

> <PUBCHEM_PHARMACOPHORE_FEATURES>
4
1 1 acceptor
1 2 acceptor
1 20 hydrophobe
3 1 2 18 anion

> <PUBCHEM_HEAVY_ATOM_COUNT>
20

> <PUBCHEM_ATOM_DEF_STEREO_COUNT>
0

> <PUBCHEM_ATOM_UDEF_STEREO_COUNT>
0

> <PUBCHEM_BOND_DEF_STEREO_COUNT>
0

> <PUBCHEM_BOND_UDEF_STEREO_COUNT>
0

> <PUBCHEM_ISOTOPIC_ATOM_COUNT>
0

> <PUBCHEM_COMPONENT_COUNT>
1

> <PUBCHEM_CACTVS_TAUTO_COUNT>
1

> <PUBCHEM_CONFORMER_ID>
000005A900000001

> <PUBCHEM_MMFF94_ENERGY>
2.8217

> <PUBCHEM_FEATURE_SELFOVERLAP>
20.354

> <PUBCHEM_SHAPE_FINGERPRINT>
12498461 61 15195276578961987639
14251764 46 18272088301379509877
14251920 1 18410855455833194497
14344974 52 17240486948341447745
15061470 23 18335137583724638413
15510794 2 18410578387957724899
155225 1 11818994080089996518
21362267 313 8502113845606138133
21792934 111 9223225239917353790
232437 2 18344145895491401303
23521765 1 18272370871778713344
23528940 14 15841261663646200335
23581129 1 18409448089539575813
33684 2 18410855460128168289
59521099 67 18342176704980779416
67123 10 18333449846123123785
8209 1 18334012791808062073

> <PUBCHEM_SHAPE_MULTIPOLES>
399.85
49.67
0.92
0.65
11.34
0.11
0.01
8.68
-6.83
-0.27
-0.01
-0.04
-0.01
-0.03

> <PUBCHEM_SHAPE_SELFOVERLAP>
732.697

> <PUBCHEM_SHAPE_VOLUME>
252

> <PUBCHEM_COORDINATE_TYPE>
2
5
10

$$$$
