91691667
  -OEChem-09022011562D

 36 37  0     1  0  0  0  0  0999 V2000
    6.2177    2.0667    0.0000 O   0  0  0  0  0  0  0  0  0  0  0  0
    8.0944   -0.3906    0.0000 O   0  0  0  0  0  0  0  0  0  0  0  0
    4.3054    1.5610    0.0000 O   0  0  0  0  0  0  0  0  0  0  0  0
    3.7057   -0.5303    0.0000 O   0  0  0  0  0  0  0  0  0  0  0  0
    5.5094   -1.7469    0.0000 O   0  0  0  0  0  0  0  0  0  0  0  0
    5.6703    2.6273    0.0000 O   0  0  0  0  0  0  0  0  0  0  0  0
    3.1133    1.0973    0.0000 O   0  0  0  0  0  0  0  0  0  0  0  0
    3.7784   -1.8073    0.0000 O   0  0  0  0  0  0  0  0  0  0  0  0
    6.9543    1.0841    0.0000 C   0  0  2  0  0  0  0  0  0  0  0  0
    4.9211    0.7730    0.0000 C   0  0  2  0  0  0  0  0  0  0  0  0
    4.6454   -0.1883    0.0000 C   0  0  1  0  0  0  0  0  0  0  0  0
    5.4745   -0.7475    0.0000 C   0  0  2  0  0  0  0  0  0  0  0  0
    6.6955    0.1182    0.0000 C   0  0  1  0  0  0  0  0  0  0  0  0
    8.3532    0.5753    0.0000 C   0  0  0  0  0  0  0  0  0  0  0  0
    4.6800    2.4882    0.0000 C   0  0  0  0  0  0  0  0  0  0  0  0
    2.9397    0.1125    0.0000 C   0  0  0  0  0  0  0  0  0  0  0  0
    4.6613   -2.2768    0.0000 C   0  0  0  0  0  0  0  0  0  0  0  0
    4.0644    3.2762    0.0000 C   0  0  0  0  0  0  0  0  0  0  0  0
    2.0000   -0.2295    0.0000 C   0  0  0  0  0  0  0  0  0  0  0  0
    4.6962   -3.2762    0.0000 C   0  0  0  0  0  0  0  0  0  0  0  0
    7.1743    1.9051    0.0000 H   0  0  0  0  0  0  0  0  0  0  0  0
    4.3125    0.6547    0.0000 H   0  0  0  0  0  0  0  0  0  0  0  0
    4.1920    0.2346    0.0000 H   0  0  0  0  0  0  0  0  0  0  0  0
    4.9322   -1.0481    0.0000 H   0  0  0  0  0  0  0  0  0  0  0  0
    6.4755   -0.7029    0.0000 H   0  0  0  0  0  0  0  0  0  0  0  0
    8.9472    0.3975    0.0000 H   0  0  0  0  0  0  0  0  0  0  0  0
    8.5482    1.1638    0.0000 H   0  0  0  0  0  0  0  0  0  0  0  0
    4.5529    3.6579    0.0000 H   0  0  0  0  0  0  0  0  0  0  0  0
    3.6826    3.7648    0.0000 H   0  0  0  0  0  0  0  0  0  0  0  0
    3.5758    2.8945    0.0000 H   0  0  0  0  0  0  0  0  0  0  0  0
    1.7880    0.3531    0.0000 H   0  0  0  0  0  0  0  0  0  0  0  0
    1.4174   -0.4416    0.0000 H   0  0  0  0  0  0  0  0  0  0  0  0
    2.2120   -0.8121    0.0000 H   0  0  0  0  0  0  0  0  0  0  0  0
    4.0766   -3.2978    0.0000 H   0  0  0  0  0  0  0  0  0  0  0  0
    4.7179   -3.8958    0.0000 H   0  0  0  0  0  0  0  0  0  0  0  0
    5.3158   -3.2545    0.0000 H   0  0  0  0  0  0  0  0  0  0  0  0
  1  9  1  0  0  0  0
  1 13  1  0  0  0  0
  2 13  1  0  0  0  0
  2 14  1  0  0  0  0
 10  3  1  6  0  0  0
  3 15  1  0  0  0  0
 11  4  1  1  0  0  0
  4 16  1  0  0  0  0
 12  5  1  6  0  0  0
  5 17  1  0  0  0  0
  6 15  2  0  0  0  0
  7 16  2  0  0  0  0
  8 17  2  0  0  0  0
  9 10  1  0  0  0  0
  9 14  1  0  0  0  0
  9 21  1  6  0  0  0
 10 11  1  0  0  0  0
 10 22  1  0  0  0  0
 11 12  1  0  0  0  0
 11 23  1  0  0  0  0
 12 13  1  0  0  0  0
 12 24  1  0  0  0  0
 13 25  1  6  0  0  0
 14 26  1  0  0  0  0
 14 27  1  0  0  0  0
 15 18  1  0  0  0  0
 16 19  1  0  0  0  0
 17 20  1  0  0  0  0
 18 28  1  0  0  0  0
 18 29  1  0  0  0  0
 18 30  1  0  0  0  0
 19 31  1  0  0  0  0
 19 32  1  0  0  0  0
 19 33  1  0  0  0  0
 20 34  1  0  0  0  0
 20 35  1  0  0  0  0
 20 36  1  0  0  0  0
M  END
> <PUBCHEM_COMPOUND_CID>
91691667

> <PUBCHEM_COMPOUND_CANONICALIZED>
1

> <PUBCHEM_CACTVS_COMPLEXITY>
420

> <PUBCHEM_CACTVS_HBOND_ACCEPTOR>
8

> <PUBCHEM_CACTVS_HBOND_DONOR>
0

> <PUBCHEM_CACTVS_ROTATABLE_BOND>
6

> <PUBCHEM_CACTVS_SUBSKEYS>
AAADceBwPAAAAAAAAAAAAAAAAAAAASAAAAAkAAAABIAAAAAAAAAAGgAAAAAACBSwgAMCCAAABAAIAACQCAAAAAAAAAAAAAAAAAARAAIAAAAiAAAFAAAGAAHAYAwAAAAAAAAAAAAAAAAAAAAAAAAAAAAAAA==

> <PUBCHEM_IUPAC_OPENEYE_NAME>
[(1S,2R,3S,4R,5R)-3,4-diacetoxy-6,8-dioxabicyclo[3.2.1]octan-2-yl] acetate

> <PUBCHEM_IUPAC_CAS_NAME>
acetic acid [(1S,2R,3S,4R,5R)-3,4-diacetyloxy-6,8-dioxabicyclo[3.2.1]octan-2-yl] ester

> <PUBCHEM_IUPAC_NAME_MARKUP>
[(1<I>S</I>,2<I>R</I>,3<I>S</I>,4<I>R</I>,5<I>R</I>)-3,4-diacetyloxy-6,8-dioxabicyclo[3.2.1]octan-2-yl] acetate

> <PUBCHEM_IUPAC_NAME>
[(1S,2R,3S,4R,5R)-3,4-diacetyloxy-6,8-dioxabicyclo[3.2.1]octan-2-yl] acetate

> <PUBCHEM_IUPAC_SYSTEMATIC_NAME>
[(1S,2R,3S,4R,5R)-3,4-diacetyloxy-6,8-dioxabicyclo[3.2.1]octan-2-yl] ethanoate

> <PUBCHEM_IUPAC_TRADITIONAL_NAME>
acetic acid [(1S,2R,3S,4R,5R)-3,4-diacetoxy-6,8-dioxabicyclo[3.2.1]octan-2-yl] ester

> <PUBCHEM_IUPAC_INCHI>
InChI=1S/C12H16O8/c1-5(13)17-9-8-4-16-12(20-8)11(19-7(3)15)10(9)18-6(2)14/h8-12H,4H2,1-3H3/t8-,9+,10-,11+,12+/m0/s1

> <PUBCHEM_IUPAC_INCHIKEY>
BAKQMOSGYGQJOJ-RNWYCLNJSA-N

> <PUBCHEM_XLOGP3_AA>
-0.4

> <PUBCHEM_EXACT_MASS>
288.084517

> <PUBCHEM_MOLECULAR_FORMULA>
C12H16O8

> <PUBCHEM_MOLECULAR_WEIGHT>
288.25

> <PUBCHEM_OPENEYE_CAN_SMILES>
CC(=O)OC1C2COC(O2)C(C1OC(=O)C)OC(=O)C

> <PUBCHEM_OPENEYE_ISO_SMILES>
CC(=O)O[C@@H]1[C@@H]2CO[C@H](O2)[C@@H]([C@H]1OC(=O)C)OC(=O)C

> <PUBCHEM_CACTVS_TPSA>
97.4

> <PUBCHEM_MONOISOTOPIC_WEIGHT>
288.084517

> <PUBCHEM_TOTAL_CHARGE>
0

> <PUBCHEM_HEAVY_ATOM_COUNT>
20

> <PUBCHEM_ATOM_DEF_STEREO_COUNT>
5

> <PUBCHEM_ATOM_UDEF_STEREO_COUNT>
0

> <PUBCHEM_BOND_DEF_STEREO_COUNT>
0

> <PUBCHEM_BOND_UDEF_STEREO_COUNT>
0

> <PUBCHEM_ISOTOPIC_ATOM_COUNT>
0

> <PUBCHEM_COMPONENT_COUNT>
1

> <PUBCHEM_CACTVS_TAUTO_COUNT>
-1

> <PUBCHEM_COORDINATE_TYPE>
1
5
255

> <PUBCHEM_BONDANNOTATIONS>
13  25  6
10  3  6
11  4  5
12  5  6
9  21  6

$$$$
