90657729
  -OEChem-09022012262D

127127  0     1  0  0  0  0  0999 V2000
    4.2690   -3.9050    0.0000 O   0  0  0  0  0  0  0  0  0  0  0  0
    6.0010   -3.9050    0.0000 O   0  0  0  0  0  0  0  0  0  0  0  0
    4.2690   -6.9050    0.0000 O   0  0  0  0  0  0  0  0  0  0  0  0
    2.5369   -5.9050    0.0000 O   0  0  0  0  0  0  0  0  0  0  0  0
    6.0010   -5.9050    0.0000 O   0  0  0  0  0  0  0  0  0  0  0  0
    2.5369   -2.9050    0.0000 O   0  0  0  0  0  0  0  0  0  0  0  0
    6.8671   -1.4050    0.0000 O   0  0  0  0  0  0  0  0  0  0  0  0
    8.5991   -2.4050    0.0000 O   0  0  0  0  0  0  0  0  0  0  0  0
    8.5991   -1.4050    0.0000 O   0  0  0  0  0  0  0  0  0  0  0  0
    9.4651   -3.9050    0.0000 O   0  0  0  0  0  0  0  0  0  0  0  0
    4.2690   -5.9050    0.0000 C   0  0  1  0  0  0  0  0  0  0  0  0
    3.4030   -5.4050    0.0000 C   0  0  2  0  0  0  0  0  0  0  0  0
    5.1350   -5.4050    0.0000 C   0  0  2  0  0  0  0  0  0  0  0  0
    3.4030   -4.4050    0.0000 C   0  0  1  0  0  0  0  0  0  0  0  0
    5.1350   -4.4050    0.0000 C   0  0  1  0  0  0  0  0  0  0  0  0
    2.5369   -3.9050    0.0000 C   0  0  0  0  0  0  0  0  0  0  0  0
    6.0010   -2.9050    0.0000 C   0  0  0  0  0  0  0  0  0  0  0  0
    6.8671   -2.4050    0.0000 C   0  0  1  0  0  0  0  0  0  0  0  0
    7.7331   -2.9050    0.0000 C   0  0  0  0  0  0  0  0  0  0  0  0
   12.0632   -2.4050    0.0000 C   0  0  0  0  0  0  0  0  0  0  0  0
   12.9292   -2.9050    0.0000 C   0  0  0  0  0  0  0  0  0  0  0  0
   11.1972   -2.9050    0.0000 C   0  0  0  0  0  0  0  0  0  0  0  0
    7.7331   -0.9050    0.0000 C   0  0  0  0  0  0  0  0  0  0  0  0
   13.7953   -2.4050    0.0000 C   0  0  0  0  0  0  0  0  0  0  0  0
   10.3312   -2.4050    0.0000 C   0  0  0  0  0  0  0  0  0  0  0  0
    7.7331    0.0950    0.0000 C   0  0  0  0  0  0  0  0  0  0  0  0
   14.6613   -2.9050    0.0000 C   0  0  0  0  0  0  0  0  0  0  0  0
    9.4651   -2.9050    0.0000 C   0  0  0  0  0  0  0  0  0  0  0  0
   18.1254    0.0950    0.0000 C   0  0  0  0  0  0  0  0  0  0  0  0
   18.9914    0.5950    0.0000 C   0  0  0  0  0  0  0  0  0  0  0  0
    8.5991    0.5950    0.0000 C   0  0  0  0  0  0  0  0  0  0  0  0
   18.1254   -0.9050    0.0000 C   0  0  0  0  0  0  0  0  0  0  0  0
   18.9914    1.5950    0.0000 C   0  0  0  0  0  0  0  0  0  0  0  0
   15.5273   -2.4050    0.0000 C   0  0  0  0  0  0  0  0  0  0  0  0
    8.5991    1.5950    0.0000 C   0  0  0  0  0  0  0  0  0  0  0  0
   17.2594   -1.4050    0.0000 C   0  0  0  0  0  0  0  0  0  0  0  0
   19.8574    2.0950    0.0000 C   0  0  0  0  0  0  0  0  0  0  0  0
    9.4651    2.0950    0.0000 C   0  0  0  0  0  0  0  0  0  0  0  0
   16.3933   -2.9050    0.0000 C   0  0  0  0  0  0  0  0  0  0  0  0
   17.2594   -2.4050    0.0000 C   0  0  0  0  0  0  0  0  0  0  0  0
   19.8574    3.0950    0.0000 C   0  0  0  0  0  0  0  0  0  0  0  0
    9.4651    3.0950    0.0000 C   0  0  0  0  0  0  0  0  0  0  0  0
   20.7235    3.5950    0.0000 C   0  0  0  0  0  0  0  0  0  0  0  0
   10.3312    3.5950    0.0000 C   0  0  0  0  0  0  0  0  0  0  0  0
   10.3312    4.5950    0.0000 C   0  0  0  0  0  0  0  0  0  0  0  0
    9.4651    5.0950    0.0000 C   0  0  0  0  0  0  0  0  0  0  0  0
    9.4651    6.0950    0.0000 C   0  0  0  0  0  0  0  0  0  0  0  0
    8.5991    6.5950    0.0000 C   0  0  0  0  0  0  0  0  0  0  0  0
    7.7331    6.0950    0.0000 C   0  0  0  0  0  0  0  0  0  0  0  0
    6.8671    6.5950    0.0000 C   0  0  0  0  0  0  0  0  0  0  0  0
    6.0010    6.0950    0.0000 C   0  0  0  0  0  0  0  0  0  0  0  0
    6.0010    5.0950    0.0000 C   0  0  0  0  0  0  0  0  0  0  0  0
    5.1350    4.5950    0.0000 C   0  0  0  0  0  0  0  0  0  0  0  0
    3.7320   -6.2150    0.0000 H   0  0  0  0  0  0  0  0  0  0  0  0
    3.4030   -6.0250    0.0000 H   0  0  0  0  0  0  0  0  0  0  0  0
    5.1350   -6.0250    0.0000 H   0  0  0  0  0  0  0  0  0  0  0  0
    3.4030   -3.7850    0.0000 H   0  0  0  0  0  0  0  0  0  0  0  0
    5.6720   -4.7150    0.0000 H   0  0  0  0  0  0  0  0  0  0  0  0
    1.9264   -3.7973    0.0000 H   0  0  0  0  0  0  0  0  0  0  0  0
    2.3249   -4.4876    0.0000 H   0  0  0  0  0  0  0  0  0  0  0  0
    3.7320   -7.2150    0.0000 H   0  0  0  0  0  0  0  0  0  0  0  0
    2.0000   -5.5950    0.0000 H   0  0  0  0  0  0  0  0  0  0  0  0
    6.5380   -5.5950    0.0000 H   0  0  0  0  0  0  0  0  0  0  0  0
    5.7890   -2.3224    0.0000 H   0  0  0  0  0  0  0  0  0  0  0  0
    5.3905   -3.0127    0.0000 H   0  0  0  0  0  0  0  0  0  0  0  0
    7.4040   -2.0950    0.0000 H   0  0  0  0  0  0  0  0  0  0  0  0
    2.0000   -2.5950    0.0000 H   0  0  0  0  0  0  0  0  0  0  0  0
    7.3346   -3.3800    0.0000 H   0  0  0  0  0  0  0  0  0  0  0  0
    8.1316   -3.3800    0.0000 H   0  0  0  0  0  0  0  0  0  0  0  0
   12.4617   -1.9300    0.0000 H   0  0  0  0  0  0  0  0  0  0  0  0
   11.6647   -1.9300    0.0000 H   0  0  0  0  0  0  0  0  0  0  0  0
   12.5307   -3.3800    0.0000 H   0  0  0  0  0  0  0  0  0  0  0  0
   13.3278   -3.3800    0.0000 H   0  0  0  0  0  0  0  0  0  0  0  0
   10.7987   -3.3800    0.0000 H   0  0  0  0  0  0  0  0  0  0  0  0
   11.5957   -3.3800    0.0000 H   0  0  0  0  0  0  0  0  0  0  0  0
   14.1938   -1.9300    0.0000 H   0  0  0  0  0  0  0  0  0  0  0  0
   13.3967   -1.9300    0.0000 H   0  0  0  0  0  0  0  0  0  0  0  0
   10.7297   -1.9300    0.0000 H   0  0  0  0  0  0  0  0  0  0  0  0
    9.9326   -1.9300    0.0000 H   0  0  0  0  0  0  0  0  0  0  0  0
    7.5210    0.6776    0.0000 H   0  0  0  0  0  0  0  0  0  0  0  0
    7.1225   -0.0127    0.0000 H   0  0  0  0  0  0  0  0  0  0  0  0
   14.2628   -3.3800    0.0000 H   0  0  0  0  0  0  0  0  0  0  0  0
   15.0598   -3.3800    0.0000 H   0  0  0  0  0  0  0  0  0  0  0  0
   17.9133    0.6776    0.0000 H   0  0  0  0  0  0  0  0  0  0  0  0
   17.5148   -0.0127    0.0000 H   0  0  0  0  0  0  0  0  0  0  0  0
   19.2035    0.0124    0.0000 H   0  0  0  0  0  0  0  0  0  0  0  0
   19.6020    0.7027    0.0000 H   0  0  0  0  0  0  0  0  0  0  0  0
    8.8112    0.0124    0.0000 H   0  0  0  0  0  0  0  0  0  0  0  0
    9.2097    0.7027    0.0000 H   0  0  0  0  0  0  0  0  0  0  0  0
   18.3374   -1.4876    0.0000 H   0  0  0  0  0  0  0  0  0  0  0  0
   18.7360   -0.7973    0.0000 H   0  0  0  0  0  0  0  0  0  0  0  0
   18.7794    2.1776    0.0000 H   0  0  0  0  0  0  0  0  0  0  0  0
   18.3808    1.4873    0.0000 H   0  0  0  0  0  0  0  0  0  0  0  0
   15.9258   -1.9300    0.0000 H   0  0  0  0  0  0  0  0  0  0  0  0
   15.1288   -1.9300    0.0000 H   0  0  0  0  0  0  0  0  0  0  0  0
    8.3871    2.1776    0.0000 H   0  0  0  0  0  0  0  0  0  0  0  0
    7.9885    1.4873    0.0000 H   0  0  0  0  0  0  0  0  0  0  0  0
   17.0473   -0.8224    0.0000 H   0  0  0  0  0  0  0  0  0  0  0  0
   16.6488   -1.5127    0.0000 H   0  0  0  0  0  0  0  0  0  0  0  0
   20.0695    1.5124    0.0000 H   0  0  0  0  0  0  0  0  0  0  0  0
   20.4680    2.2027    0.0000 H   0  0  0  0  0  0  0  0  0  0  0  0
    9.6772    1.5124    0.0000 H   0  0  0  0  0  0  0  0  0  0  0  0
   10.0757    2.2027    0.0000 H   0  0  0  0  0  0  0  0  0  0  0  0
   16.3933   -3.5250    0.0000 H   0  0  0  0  0  0  0  0  0  0  0  0
   17.7963   -2.7150    0.0000 H   0  0  0  0  0  0  0  0  0  0  0  0
   19.6454    3.6776    0.0000 H   0  0  0  0  0  0  0  0  0  0  0  0
   19.2469    2.9873    0.0000 H   0  0  0  0  0  0  0  0  0  0  0  0
    9.2531    3.6776    0.0000 H   0  0  0  0  0  0  0  0  0  0  0  0
    8.8546    2.9873    0.0000 H   0  0  0  0  0  0  0  0  0  0  0  0
   21.0335    3.0581    0.0000 H   0  0  0  0  0  0  0  0  0  0  0  0
   21.2604    3.9050    0.0000 H   0  0  0  0  0  0  0  0  0  0  0  0
   20.4135    4.1319    0.0000 H   0  0  0  0  0  0  0  0  0  0  0  0
   10.8681    3.2850    0.0000 H   0  0  0  0  0  0  0  0  0  0  0  0
   10.8681    4.9050    0.0000 H   0  0  0  0  0  0  0  0  0  0  0  0
    8.8546    5.2027    0.0000 H   0  0  0  0  0  0  0  0  0  0  0  0
    9.2531    4.5124    0.0000 H   0  0  0  0  0  0  0  0  0  0  0  0
   10.0021    6.4050    0.0000 H   0  0  0  0  0  0  0  0  0  0  0  0
    8.5991    7.2150    0.0000 H   0  0  0  0  0  0  0  0  0  0  0  0
    7.3346    5.6200    0.0000 H   0  0  0  0  0  0  0  0  0  0  0  0
    8.1316    5.6200    0.0000 H   0  0  0  0  0  0  0  0  0  0  0  0
    6.8671    7.2150    0.0000 H   0  0  0  0  0  0  0  0  0  0  0  0
    5.4641    6.4050    0.0000 H   0  0  0  0  0  0  0  0  0  0  0  0
    6.2131    4.5124    0.0000 H   0  0  0  0  0  0  0  0  0  0  0  0
    6.6116    5.2027    0.0000 H   0  0  0  0  0  0  0  0  0  0  0  0
    4.8250    5.1319    0.0000 H   0  0  0  0  0  0  0  0  0  0  0  0
    4.5981    4.2850    0.0000 H   0  0  0  0  0  0  0  0  0  0  0  0
    5.4450    4.0581    0.0000 H   0  0  0  0  0  0  0  0  0  0  0  0
  1 14  1  0  0  0  0
  1 15  1  0  0  0  0
 15  2  1  1  0  0  0
  2 17  1  0  0  0  0
 11  3  1  1  0  0  0
  3 61  1  0  0  0  0
 12  4  1  1  0  0  0
  4 62  1  0  0  0  0
 13  5  1  6  0  0  0
  5 63  1  0  0  0  0
  6 16  1  0  0  0  0
  6 67  1  0  0  0  0
 18  7  1  6  0  0  0
  7 23  1  0  0  0  0
  8 19  1  0  0  0  0
  8 28  1  0  0  0  0
  9 23  2  0  0  0  0
 10 28  2  0  0  0  0
 11 12  1  0  0  0  0
 11 13  1  0  0  0  0
 11 54  1  0  0  0  0
 12 14  1  0  0  0  0
 12 55  1  0  0  0  0
 13 15  1  0  0  0  0
 13 56  1  0  0  0  0
 14 16  1  1  0  0  0
 14 57  1  0  0  0  0
 15 58  1  0  0  0  0
 16 59  1  0  0  0  0
 16 60  1  0  0  0  0
 17 18  1  0  0  0  0
 17 64  1  0  0  0  0
 17 65  1  0  0  0  0
 18 19  1  0  0  0  0
 18 66  1  0  0  0  0
 19 68  1  0  0  0  0
 19 69  1  0  0  0  0
 20 21  1  0  0  0  0
 20 22  1  0  0  0  0
 20 70  1  0  0  0  0
 20 71  1  0  0  0  0
 21 24  1  0  0  0  0
 21 72  1  0  0  0  0
 21 73  1  0  0  0  0
 22 25  1  0  0  0  0
 22 74  1  0  0  0  0
 22 75  1  0  0  0  0
 23 26  1  0  0  0  0
 24 27  1  0  0  0  0
 24 76  1  0  0  0  0
 24 77  1  0  0  0  0
 25 28  1  0  0  0  0
 25 78  1  0  0  0  0
 25 79  1  0  0  0  0
 26 31  1  0  0  0  0
 26 80  1  0  0  0  0
 26 81  1  0  0  0  0
 27 34  1  0  0  0  0
 27 82  1  0  0  0  0
 27 83  1  0  0  0  0
 29 30  1  0  0  0  0
 29 32  1  0  0  0  0
 29 84  1  0  0  0  0
 29 85  1  0  0  0  0
 30 33  1  0  0  0  0
 30 86  1  0  0  0  0
 30 87  1  0  0  0  0
 31 35  1  0  0  0  0
 31 88  1  0  0  0  0
 31 89  1  0  0  0  0
 32 36  1  0  0  0  0
 32 90  1  0  0  0  0
 32 91  1  0  0  0  0
 33 37  1  0  0  0  0
 33 92  1  0  0  0  0
 33 93  1  0  0  0  0
 34 39  1  0  0  0  0
 34 94  1  0  0  0  0
 34 95  1  0  0  0  0
 35 38  1  0  0  0  0
 35 96  1  0  0  0  0
 35 97  1  0  0  0  0
 36 40  1  0  0  0  0
 36 98  1  0  0  0  0
 36 99  1  0  0  0  0
 37 41  1  0  0  0  0
 37100  1  0  0  0  0
 37101  1  0  0  0  0
 38 42  1  0  0  0  0
 38102  1  0  0  0  0
 38103  1  0  0  0  0
 39 40  2  0  0  0  0
 39104  1  0  0  0  0
 40105  1  0  0  0  0
 41 43  1  0  0  0  0
 41106  1  0  0  0  0
 41107  1  0  0  0  0
 42 44  1  0  0  0  0
 42108  1  0  0  0  0
 42109  1  0  0  0  0
 43110  1  0  0  0  0
 43111  1  0  0  0  0
 43112  1  0  0  0  0
 44 45  2  0  0  0  0
 44113  1  0  0  0  0
 45 46  1  0  0  0  0
 45114  1  0  0  0  0
 46 47  1  0  0  0  0
 46115  1  0  0  0  0
 46116  1  0  0  0  0
 47 48  2  0  0  0  0
 47117  1  0  0  0  0
 48 49  1  0  0  0  0
 48118  1  0  0  0  0
 49 50  1  0  0  0  0
 49119  1  0  0  0  0
 49120  1  0  0  0  0
 50 51  2  0  0  0  0
 50121  1  0  0  0  0
 51 52  1  0  0  0  0
 51122  1  0  0  0  0
 52 53  1  0  0  0  0
 52123  1  0  0  0  0
 52124  1  0  0  0  0
 53125  1  0  0  0  0
 53126  1  0  0  0  0
 53127  1  0  0  0  0
M  END
> <PUBCHEM_COMPOUND_CID>
90657729

> <PUBCHEM_COMPOUND_CANONICALIZED>
1

> <PUBCHEM_CACTVS_COMPLEXITY>
1010

> <PUBCHEM_CACTVS_HBOND_ACCEPTOR>
10

> <PUBCHEM_CACTVS_HBOND_DONOR>
4

> <PUBCHEM_CACTVS_ROTATABLE_BOND>
35

> <PUBCHEM_CACTVS_SUBSKEYS>
AAADcfB8PAAAAAAAAAAAAAAAAAAAAAAAAAAkAAAAAAAAAAAAAAAAGgAACAAACBSwgAMCCAAABgCIACDSCAAAAAAgAAAICAEAAAgREBIAAQAiQAAFgAAPAAPI6KyAAAAAAAAAAAAAAAAAAAAAAAAAAAAAAA==

> <PUBCHEM_IUPAC_OPENEYE_NAME>
[(2S)-2-[(7Z,10Z,13Z)-hexadeca-7,10,13-trienoyl]oxy-3-[(2R,3R,4S,5R,6R)-3,4,5-trihydroxy-6-(hydroxymethyl)tetrahydropyran-2-yl]oxy-propyl] (Z)-octadec-9-enoate

> <PUBCHEM_IUPAC_CAS_NAME>
(Z)-9-octadecenoic acid [(2S)-2-[(7Z,10Z,13Z)-1-oxohexadeca-7,10,13-trienoxy]-3-[[(2R,3R,4S,5R,6R)-3,4,5-trihydroxy-6-(hydroxymethyl)-2-oxanyl]oxy]propyl] ester

> <PUBCHEM_IUPAC_NAME_MARKUP>
[(2<I>S</I>)-2-[(7<I>Z</I>,10<I>Z</I>,13<I>Z</I>)-hexadeca-7,10,13-trienoyl]oxy-3-[(2<I>R</I>,3<I>R</I>,4<I>S</I>,5<I>R</I>,6<I>R</I>)-3,4,5-trihydroxy-6-(hydroxymethyl)oxan-2-yl]oxypropyl] (<I>Z</I>)-octadec-9-enoate

> <PUBCHEM_IUPAC_NAME>
[(2S)-2-[(7Z,10Z,13Z)-hexadeca-7,10,13-trienoyl]oxy-3-[(2R,3R,4S,5R,6R)-3,4,5-trihydroxy-6-(hydroxymethyl)oxan-2-yl]oxypropyl] (Z)-octadec-9-enoate

> <PUBCHEM_IUPAC_SYSTEMATIC_NAME>
[(2S)-2-[(7Z,10Z,13Z)-hexadeca-7,10,13-trienoyl]oxy-3-[(2R,3R,4S,5R,6R)-6-(hydroxymethyl)-3,4,5-tris(oxidanyl)oxan-2-yl]oxy-propyl] (Z)-octadec-9-enoate

> <PUBCHEM_IUPAC_TRADITIONAL_NAME>
(Z)-octadec-9-enoic acid [(2S)-2-[(7Z,10Z,13Z)-hexadeca-7,10,13-trienoyl]oxy-3-[(2R,3R,4S,5R,6R)-3,4,5-trihydroxy-6-methylol-tetrahydropyran-2-yl]oxy-propyl] ester

> <PUBCHEM_IUPAC_INCHI>
InChI=1S/C43H74O10/c1-3-5-7-9-11-13-15-17-18-20-21-23-25-27-29-31-38(45)50-34-36(35-51-43-42(49)41(48)40(47)37(33-44)53-43)52-39(46)32-30-28-26-24-22-19-16-14-12-10-8-6-4-2/h6,8,12,14,17-19,22,36-37,40-44,47-49H,3-5,7,9-11,13,15-16,20-21,23-35H2,1-2H3/b8-6-,14-12-,18-17-,22-19-/t36-,37-,40+,41+,42-,43-/m1/s1

> <PUBCHEM_IUPAC_INCHIKEY>
ULEDCQDCQAHGFD-LUKLOYDESA-N

> <PUBCHEM_XLOGP3_AA>
10.3

> <PUBCHEM_EXACT_MASS>
750.528199

> <PUBCHEM_MOLECULAR_FORMULA>
C43H74O10

> <PUBCHEM_MOLECULAR_WEIGHT>
751

> <PUBCHEM_OPENEYE_CAN_SMILES>
CCCCCCCCC=CCCCCCCCC(=O)OCC(COC1C(C(C(C(O1)CO)O)O)O)OC(=O)CCCCCC=CCC=CCC=CCC

> <PUBCHEM_OPENEYE_ISO_SMILES>
CCCCCCCC/C=C\CCCCCCCC(=O)OC[C@H](CO[C@H]1[C@@H]([C@H]([C@H]([C@H](O1)CO)O)O)O)OC(=O)CCCCC/C=C\C/C=C\C/C=C\CC

> <PUBCHEM_CACTVS_TPSA>
152

> <PUBCHEM_MONOISOTOPIC_WEIGHT>
750.528199

> <PUBCHEM_TOTAL_CHARGE>
0

> <PUBCHEM_HEAVY_ATOM_COUNT>
53

> <PUBCHEM_ATOM_DEF_STEREO_COUNT>
6

> <PUBCHEM_ATOM_UDEF_STEREO_COUNT>
0

> <PUBCHEM_BOND_DEF_STEREO_COUNT>
4

> <PUBCHEM_BOND_UDEF_STEREO_COUNT>
0

> <PUBCHEM_ISOTOPIC_ATOM_COUNT>
0

> <PUBCHEM_COMPONENT_COUNT>
1

> <PUBCHEM_CACTVS_TAUTO_COUNT>
-1

> <PUBCHEM_COORDINATE_TYPE>
1
5
255

> <PUBCHEM_BONDANNOTATIONS>
14  16  5
15  2  5
11  3  5
12  4  5
13  5  6
18  7  6

$$$$
