54315103
  -OEChem-09022012322D

152152  0     1  0  0  0  0  0999 V2000
    4.2690   -8.5950    0.0000 O   0  0  0  0  0  0  0  0  0  0  0  0
    6.0010   -8.5950    0.0000 O   0  0  0  0  0  0  0  0  0  0  0  0
    4.2690  -11.5950    0.0000 O   0  0  0  0  0  0  0  0  0  0  0  0
    6.0010  -10.5950    0.0000 O   0  0  0  0  0  0  0  0  0  0  0  0
    2.5369  -10.5950    0.0000 O   0  0  0  0  0  0  0  0  0  0  0  0
    7.7331   -8.5950    0.0000 O   0  0  0  0  0  0  0  0  0  0  0  0
    2.5369   -7.5950    0.0000 O   0  0  0  0  0  0  0  0  0  0  0  0
    8.5991   -6.0950    0.0000 O   0  0  0  0  0  0  0  0  0  0  0  0
    6.8671   -6.0950    0.0000 N   0  0  0  0  0  0  0  0  0  0  0  0
    4.2690  -10.5950    0.0000 C   0  0  2  0  0  0  0  0  0  0  0  0
    5.1350  -10.0950    0.0000 C   0  0  2  0  0  0  0  0  0  0  0  0
    3.4030  -10.0950    0.0000 C   0  0  1  0  0  0  0  0  0  0  0  0
    5.1350   -9.0950    0.0000 C   0  0  3  0  0  0  0  0  0  0  0  0
    3.4030   -9.0950    0.0000 C   0  0  1  0  0  0  0  0  0  0  0  0
    6.8671   -7.0950    0.0000 C   0  0  3  0  0  0  0  0  0  0  0  0
    7.7331   -7.5950    0.0000 C   0  0  3  0  0  0  0  0  0  0  0  0
    6.0010   -7.5950    0.0000 C   0  0  0  0  0  0  0  0  0  0  0  0
    8.5991   -7.0950    0.0000 C   0  0  0  0  0  0  0  0  0  0  0  0
    2.5369   -8.5950    0.0000 C   0  0  0  0  0  0  0  0  0  0  0  0
    9.4651   -7.5950    0.0000 C   0  0  0  0  0  0  0  0  0  0  0  0
   10.3312   -7.0950    0.0000 C   0  0  0  0  0  0  0  0  0  0  0  0
   11.1972   -7.5950    0.0000 C   0  0  0  0  0  0  0  0  0  0  0  0
   12.0632   -7.0950    0.0000 C   0  0  0  0  0  0  0  0  0  0  0  0
   12.9292   -7.5950    0.0000 C   0  0  0  0  0  0  0  0  0  0  0  0
    7.7331   -5.5950    0.0000 C   0  0  0  0  0  0  0  0  0  0  0  0
   13.7953   -7.0950    0.0000 C   0  0  0  0  0  0  0  0  0  0  0  0
    7.7331   -4.5950    0.0000 C   0  0  0  0  0  0  0  0  0  0  0  0
    8.5991   -4.0950    0.0000 C   0  0  0  0  0  0  0  0  0  0  0  0
    8.5991   -3.0950    0.0000 C   0  0  0  0  0  0  0  0  0  0  0  0
   14.6613   -7.5950    0.0000 C   0  0  0  0  0  0  0  0  0  0  0  0
    9.4651   -2.5950    0.0000 C   0  0  0  0  0  0  0  0  0  0  0  0
    9.4651   -1.5950    0.0000 C   0  0  0  0  0  0  0  0  0  0  0  0
   10.3312   -1.0950    0.0000 C   0  0  0  0  0  0  0  0  0  0  0  0
   10.3312   -0.0950    0.0000 C   0  0  0  0  0  0  0  0  0  0  0  0
   11.1972    0.4050    0.0000 C   0  0  0  0  0  0  0  0  0  0  0  0
   11.1972    1.4050    0.0000 C   0  0  0  0  0  0  0  0  0  0  0  0
   12.0632    1.9050    0.0000 C   0  0  0  0  0  0  0  0  0  0  0  0
   12.0632    2.9050    0.0000 C   0  0  0  0  0  0  0  0  0  0  0  0
   12.9292    3.4050    0.0000 C   0  0  0  0  0  0  0  0  0  0  0  0
   15.5273   -7.0950    0.0000 C   0  0  0  0  0  0  0  0  0  0  0  0
   12.9292    4.4050    0.0000 C   0  0  0  0  0  0  0  0  0  0  0  0
   13.7953    4.9050    0.0000 C   0  0  0  0  0  0  0  0  0  0  0  0
   13.7953    5.9050    0.0000 C   0  0  0  0  0  0  0  0  0  0  0  0
   16.3933   -7.5950    0.0000 C   0  0  0  0  0  0  0  0  0  0  0  0
   14.6613    6.4050    0.0000 C   0  0  0  0  0  0  0  0  0  0  0  0
   14.6613    7.4050    0.0000 C   0  0  0  0  0  0  0  0  0  0  0  0
   17.2594   -7.0950    0.0000 C   0  0  0  0  0  0  0  0  0  0  0  0
   15.5273    7.9050    0.0000 C   0  0  0  0  0  0  0  0  0  0  0  0
   15.5273    8.9050    0.0000 C   0  0  0  0  0  0  0  0  0  0  0  0
   18.1254   -7.5950    0.0000 C   0  0  0  0  0  0  0  0  0  0  0  0
   16.3933    9.4050    0.0000 C   0  0  0  0  0  0  0  0  0  0  0  0
   18.9914   -7.0950    0.0000 C   0  0  0  0  0  0  0  0  0  0  0  0
   16.3933   10.4050    0.0000 C   0  0  0  0  0  0  0  0  0  0  0  0
   19.8574   -7.5950    0.0000 C   0  0  0  0  0  0  0  0  0  0  0  0
   17.2594   10.9050    0.0000 C   0  0  0  0  0  0  0  0  0  0  0  0
   20.7235   -7.0950    0.0000 C   0  0  0  0  0  0  0  0  0  0  0  0
   17.2594   11.9050    0.0000 C   0  0  0  0  0  0  0  0  0  0  0  0
    3.7320  -10.9050    0.0000 H   0  0  0  0  0  0  0  0  0  0  0  0
    5.1350  -10.7150    0.0000 H   0  0  0  0  0  0  0  0  0  0  0  0
    3.4030  -10.7150    0.0000 H   0  0  0  0  0  0  0  0  0  0  0  0
    5.1350   -8.4750    0.0000 H   0  0  0  0  0  0  0  0  0  0  0  0
    3.4030   -8.4750    0.0000 H   0  0  0  0  0  0  0  0  0  0  0  0
    7.4040   -6.7850    0.0000 H   0  0  0  0  0  0  0  0  0  0  0  0
    8.2700   -7.9050    0.0000 H   0  0  0  0  0  0  0  0  0  0  0  0
    5.7890   -7.0124    0.0000 H   0  0  0  0  0  0  0  0  0  0  0  0
    5.3905   -7.7027    0.0000 H   0  0  0  0  0  0  0  0  0  0  0  0
    8.9976   -6.6200    0.0000 H   0  0  0  0  0  0  0  0  0  0  0  0
    8.2006   -6.6200    0.0000 H   0  0  0  0  0  0  0  0  0  0  0  0
    1.9264   -8.4873    0.0000 H   0  0  0  0  0  0  0  0  0  0  0  0
    2.3249   -9.1776    0.0000 H   0  0  0  0  0  0  0  0  0  0  0  0
    9.0666   -8.0700    0.0000 H   0  0  0  0  0  0  0  0  0  0  0  0
    9.8637   -8.0700    0.0000 H   0  0  0  0  0  0  0  0  0  0  0  0
   10.7297   -6.6200    0.0000 H   0  0  0  0  0  0  0  0  0  0  0  0
    9.9326   -6.6200    0.0000 H   0  0  0  0  0  0  0  0  0  0  0  0
    6.3301   -5.7850    0.0000 H   0  0  0  0  0  0  0  0  0  0  0  0
   10.7987   -8.0700    0.0000 H   0  0  0  0  0  0  0  0  0  0  0  0
   11.5957   -8.0700    0.0000 H   0  0  0  0  0  0  0  0  0  0  0  0
    3.7320  -11.9050    0.0000 H   0  0  0  0  0  0  0  0  0  0  0  0
    6.5380  -10.2850    0.0000 H   0  0  0  0  0  0  0  0  0  0  0  0
    2.0000  -10.2850    0.0000 H   0  0  0  0  0  0  0  0  0  0  0  0
   12.4617   -6.6200    0.0000 H   0  0  0  0  0  0  0  0  0  0  0  0
   11.6647   -6.6200    0.0000 H   0  0  0  0  0  0  0  0  0  0  0  0
   12.5307   -8.0700    0.0000 H   0  0  0  0  0  0  0  0  0  0  0  0
   13.3278   -8.0700    0.0000 H   0  0  0  0  0  0  0  0  0  0  0  0
   14.1938   -6.6200    0.0000 H   0  0  0  0  0  0  0  0  0  0  0  0
   13.3967   -6.6200    0.0000 H   0  0  0  0  0  0  0  0  0  0  0  0
    7.5210   -4.0124    0.0000 H   0  0  0  0  0  0  0  0  0  0  0  0
    7.1225   -4.7027    0.0000 H   0  0  0  0  0  0  0  0  0  0  0  0
    8.2700   -8.9050    0.0000 H   0  0  0  0  0  0  0  0  0  0  0  0
    8.8112   -4.6776    0.0000 H   0  0  0  0  0  0  0  0  0  0  0  0
    9.2097   -3.9873    0.0000 H   0  0  0  0  0  0  0  0  0  0  0  0
    8.3871   -2.5124    0.0000 H   0  0  0  0  0  0  0  0  0  0  0  0
    7.9885   -3.2027    0.0000 H   0  0  0  0  0  0  0  0  0  0  0  0
   14.2628   -8.0700    0.0000 H   0  0  0  0  0  0  0  0  0  0  0  0
   15.0598   -8.0700    0.0000 H   0  0  0  0  0  0  0  0  0  0  0  0
    9.6772   -3.1776    0.0000 H   0  0  0  0  0  0  0  0  0  0  0  0
   10.0757   -2.4873    0.0000 H   0  0  0  0  0  0  0  0  0  0  0  0
    9.2531   -1.0124    0.0000 H   0  0  0  0  0  0  0  0  0  0  0  0
    8.8546   -1.7027    0.0000 H   0  0  0  0  0  0  0  0  0  0  0  0
   10.5432   -1.6776    0.0000 H   0  0  0  0  0  0  0  0  0  0  0  0
   10.9417   -0.9873    0.0000 H   0  0  0  0  0  0  0  0  0  0  0  0
   10.1191    0.4876    0.0000 H   0  0  0  0  0  0  0  0  0  0  0  0
    9.7206   -0.2027    0.0000 H   0  0  0  0  0  0  0  0  0  0  0  0
   11.4092   -0.1776    0.0000 H   0  0  0  0  0  0  0  0  0  0  0  0
   11.8078    0.5127    0.0000 H   0  0  0  0  0  0  0  0  0  0  0  0
   10.9851    1.9876    0.0000 H   0  0  0  0  0  0  0  0  0  0  0  0
   10.5866    1.2973    0.0000 H   0  0  0  0  0  0  0  0  0  0  0  0
   12.2753    1.3224    0.0000 H   0  0  0  0  0  0  0  0  0  0  0  0
   12.6738    2.0127    0.0000 H   0  0  0  0  0  0  0  0  0  0  0  0
   11.8512    3.4876    0.0000 H   0  0  0  0  0  0  0  0  0  0  0  0
   11.4526    2.7973    0.0000 H   0  0  0  0  0  0  0  0  0  0  0  0
   13.1413    2.8224    0.0000 H   0  0  0  0  0  0  0  0  0  0  0  0
   13.5398    3.5127    0.0000 H   0  0  0  0  0  0  0  0  0  0  0  0
    2.0000   -7.2850    0.0000 H   0  0  0  0  0  0  0  0  0  0  0  0
   15.9258   -6.6200    0.0000 H   0  0  0  0  0  0  0  0  0  0  0  0
   15.1288   -6.6200    0.0000 H   0  0  0  0  0  0  0  0  0  0  0  0
   12.7172    4.9876    0.0000 H   0  0  0  0  0  0  0  0  0  0  0  0
   12.3187    4.2973    0.0000 H   0  0  0  0  0  0  0  0  0  0  0  0
   14.0073    4.3224    0.0000 H   0  0  0  0  0  0  0  0  0  0  0  0
   14.4058    5.0127    0.0000 H   0  0  0  0  0  0  0  0  0  0  0  0
   13.5832    6.4876    0.0000 H   0  0  0  0  0  0  0  0  0  0  0  0
   13.1847    5.7973    0.0000 H   0  0  0  0  0  0  0  0  0  0  0  0
   15.9948   -8.0700    0.0000 H   0  0  0  0  0  0  0  0  0  0  0  0
   16.7919   -8.0700    0.0000 H   0  0  0  0  0  0  0  0  0  0  0  0
   14.8733    5.8224    0.0000 H   0  0  0  0  0  0  0  0  0  0  0  0
   15.2719    6.5127    0.0000 H   0  0  0  0  0  0  0  0  0  0  0  0
   14.4492    7.9876    0.0000 H   0  0  0  0  0  0  0  0  0  0  0  0
   14.0507    7.2973    0.0000 H   0  0  0  0  0  0  0  0  0  0  0  0
   17.6579   -6.6200    0.0000 H   0  0  0  0  0  0  0  0  0  0  0  0
   16.8608   -6.6200    0.0000 H   0  0  0  0  0  0  0  0  0  0  0  0
   15.7394    7.3224    0.0000 H   0  0  0  0  0  0  0  0  0  0  0  0
   16.1379    8.0127    0.0000 H   0  0  0  0  0  0  0  0  0  0  0  0
   15.3153    9.4876    0.0000 H   0  0  0  0  0  0  0  0  0  0  0  0
   14.9167    8.7973    0.0000 H   0  0  0  0  0  0  0  0  0  0  0  0
   17.7269   -8.0700    0.0000 H   0  0  0  0  0  0  0  0  0  0  0  0
   18.5239   -8.0700    0.0000 H   0  0  0  0  0  0  0  0  0  0  0  0
   16.6054    8.8224    0.0000 H   0  0  0  0  0  0  0  0  0  0  0  0
   17.0039    9.5127    0.0000 H   0  0  0  0  0  0  0  0  0  0  0  0
   19.3899   -6.6200    0.0000 H   0  0  0  0  0  0  0  0  0  0  0  0
   18.5929   -6.6200    0.0000 H   0  0  0  0  0  0  0  0  0  0  0  0
   16.1813   10.9876    0.0000 H   0  0  0  0  0  0  0  0  0  0  0  0
   15.7828   10.2973    0.0000 H   0  0  0  0  0  0  0  0  0  0  0  0
   19.4589   -8.0700    0.0000 H   0  0  0  0  0  0  0  0  0  0  0  0
   20.2560   -8.0700    0.0000 H   0  0  0  0  0  0  0  0  0  0  0  0
   17.4714   10.3224    0.0000 H   0  0  0  0  0  0  0  0  0  0  0  0
   17.8699   11.0127    0.0000 H   0  0  0  0  0  0  0  0  0  0  0  0
   21.0335   -7.6319    0.0000 H   0  0  0  0  0  0  0  0  0  0  0  0
   21.2604   -6.7850    0.0000 H   0  0  0  0  0  0  0  0  0  0  0  0
   20.4135   -6.5581    0.0000 H   0  0  0  0  0  0  0  0  0  0  0  0
   17.8794   11.9050    0.0000 H   0  0  0  0  0  0  0  0  0  0  0  0
   17.2594   12.5250    0.0000 H   0  0  0  0  0  0  0  0  0  0  0  0
   16.6394   11.9050    0.0000 H   0  0  0  0  0  0  0  0  0  0  0  0
  1 13  1  0  0  0  0
  1 14  1  0  0  0  0
  2 13  1  0  0  0  0
  2 17  1  0  0  0  0
 10  3  1  1  0  0  0
  3 78  1  0  0  0  0
 11  4  1  6  0  0  0
  4 79  1  0  0  0  0
 12  5  1  6  0  0  0
  5 80  1  0  0  0  0
  6 16  1  0  0  0  0
  6 89  1  0  0  0  0
  7 19  1  0  0  0  0
  7114  1  0  0  0  0
  8 25  2  0  0  0  0
  9 15  1  0  0  0  0
  9 25  1  0  0  0  0
  9 75  1  0  0  0  0
 10 11  1  0  0  0  0
 10 12  1  0  0  0  0
 10 58  1  0  0  0  0
 11 13  1  0  0  0  0
 11 59  1  0  0  0  0
 12 14  1  0  0  0  0
 12 60  1  0  0  0  0
 13 61  1  0  0  0  0
 14 19  1  1  0  0  0
 14 62  1  0  0  0  0
 15 16  1  0  0  0  0
 15 17  1  0  0  0  0
 15 63  1  0  0  0  0
 16 18  1  0  0  0  0
 16 64  1  0  0  0  0
 17 65  1  0  0  0  0
 17 66  1  0  0  0  0
 18 20  1  0  0  0  0
 18 67  1  0  0  0  0
 18 68  1  0  0  0  0
 19 69  1  0  0  0  0
 19 70  1  0  0  0  0
 20 21  1  0  0  0  0
 20 71  1  0  0  0  0
 20 72  1  0  0  0  0
 21 22  1  0  0  0  0
 21 73  1  0  0  0  0
 21 74  1  0  0  0  0
 22 23  1  0  0  0  0
 22 76  1  0  0  0  0
 22 77  1  0  0  0  0
 23 24  1  0  0  0  0
 23 81  1  0  0  0  0
 23 82  1  0  0  0  0
 24 26  1  0  0  0  0
 24 83  1  0  0  0  0
 24 84  1  0  0  0  0
 25 27  1  0  0  0  0
 26 30  1  0  0  0  0
 26 85  1  0  0  0  0
 26 86  1  0  0  0  0
 27 28  1  0  0  0  0
 27 87  1  0  0  0  0
 27 88  1  0  0  0  0
 28 29  1  0  0  0  0
 28 90  1  0  0  0  0
 28 91  1  0  0  0  0
 29 31  1  0  0  0  0
 29 92  1  0  0  0  0
 29 93  1  0  0  0  0
 30 40  1  0  0  0  0
 30 94  1  0  0  0  0
 30 95  1  0  0  0  0
 31 32  1  0  0  0  0
 31 96  1  0  0  0  0
 31 97  1  0  0  0  0
 32 33  1  0  0  0  0
 32 98  1  0  0  0  0
 32 99  1  0  0  0  0
 33 34  1  0  0  0  0
 33100  1  0  0  0  0
 33101  1  0  0  0  0
 34 35  1  0  0  0  0
 34102  1  0  0  0  0
 34103  1  0  0  0  0
 35 36  1  0  0  0  0
 35104  1  0  0  0  0
 35105  1  0  0  0  0
 36 37  1  0  0  0  0
 36106  1  0  0  0  0
 36107  1  0  0  0  0
 37 38  1  0  0  0  0
 37108  1  0  0  0  0
 37109  1  0  0  0  0
 38 39  1  0  0  0  0
 38110  1  0  0  0  0
 38111  1  0  0  0  0
 39 41  1  0  0  0  0
 39112  1  0  0  0  0
 39113  1  0  0  0  0
 40 44  1  0  0  0  0
 40115  1  0  0  0  0
 40116  1  0  0  0  0
 41 42  1  0  0  0  0
 41117  1  0  0  0  0
 41118  1  0  0  0  0
 42 43  1  0  0  0  0
 42119  1  0  0  0  0
 42120  1  0  0  0  0
 43 45  1  0  0  0  0
 43121  1  0  0  0  0
 43122  1  0  0  0  0
 44 47  1  0  0  0  0
 44123  1  0  0  0  0
 44124  1  0  0  0  0
 45 46  1  0  0  0  0
 45125  1  0  0  0  0
 45126  1  0  0  0  0
 46 48  1  0  0  0  0
 46127  1  0  0  0  0
 46128  1  0  0  0  0
 47 50  1  0  0  0  0
 47129  1  0  0  0  0
 47130  1  0  0  0  0
 48 49  1  0  0  0  0
 48131  1  0  0  0  0
 48132  1  0  0  0  0
 49 51  1  0  0  0  0
 49133  1  0  0  0  0
 49134  1  0  0  0  0
 50 52  1  0  0  0  0
 50135  1  0  0  0  0
 50136  1  0  0  0  0
 51 53  1  0  0  0  0
 51137  1  0  0  0  0
 51138  1  0  0  0  0
 52 54  1  0  0  0  0
 52139  1  0  0  0  0
 52140  1  0  0  0  0
 53 55  1  0  0  0  0
 53141  1  0  0  0  0
 53142  1  0  0  0  0
 54 56  1  0  0  0  0
 54143  1  0  0  0  0
 54144  1  0  0  0  0
 55 57  1  0  0  0  0
 55145  1  0  0  0  0
 55146  1  0  0  0  0
 56147  1  0  0  0  0
 56148  1  0  0  0  0
 56149  1  0  0  0  0
 57150  1  0  0  0  0
 57151  1  0  0  0  0
 57152  1  0  0  0  0
M  END
> <PUBCHEM_COMPOUND_CID>
54315103

> <PUBCHEM_COMPOUND_CANONICALIZED>
1

> <PUBCHEM_CACTVS_COMPLEXITY>
864

> <PUBCHEM_CACTVS_HBOND_ACCEPTOR>
8

> <PUBCHEM_CACTVS_HBOND_DONOR>
6

> <PUBCHEM_CACTVS_ROTATABLE_BOND>
42

> <PUBCHEM_CACTVS_SUBSKEYS>
AAADcfB+PAAAAAAAAAAAAAAAAAAAAAAAAAAkAAAAAAAAAAAAAAAAHgAQCAAACDzxgAcCCALABgAIAAEQEAAAAAAAAAAAAIEIAAATEBIAgAAnQAAFFgCXAAHY6KyAAAAAAAAAAAAAAAAAAAAAAAAAAAAAAA==

> <PUBCHEM_IUPAC_OPENEYE_NAME>
N-[2-hydroxy-1-[[(3R,4S,5S,6R)-3,4,5-trihydroxy-6-(hydroxymethyl)tetrahydropyran-2-yl]oxymethyl]heptadecyl]tetracosanamide

> <PUBCHEM_IUPAC_CAS_NAME>
N-[3-hydroxy-1-[[(3R,4S,5S,6R)-3,4,5-trihydroxy-6-(hydroxymethyl)-2-oxanyl]oxy]octadecan-2-yl]tetracosanamide

> <PUBCHEM_IUPAC_NAME_MARKUP>
<I>N</I>-[3-hydroxy-1-[(3<I>R</I>,4<I>S</I>,5<I>S</I>,6<I>R</I>)-3,4,5-trihydroxy-6-(hydroxymethyl)oxan-2-yl]oxyoctadecan-2-yl]tetracosanamide

> <PUBCHEM_IUPAC_NAME>
N-[3-hydroxy-1-[(3R,4S,5S,6R)-3,4,5-trihydroxy-6-(hydroxymethyl)oxan-2-yl]oxyoctadecan-2-yl]tetracosanamide

> <PUBCHEM_IUPAC_SYSTEMATIC_NAME>
N-[1-[(3R,4S,5S,6R)-6-(hydroxymethyl)-3,4,5-tris(oxidanyl)oxan-2-yl]oxy-3-oxidanyl-octadecan-2-yl]tetracosanamide

> <PUBCHEM_IUPAC_TRADITIONAL_NAME>
N-[2-hydroxy-1-[[(3R,4S,5S,6R)-3,4,5-trihydroxy-6-methylol-tetrahydropyran-2-yl]oxymethyl]heptadecyl]lignoceramide

> <PUBCHEM_IUPAC_INCHI>
InChI=1S/C48H95NO8/c1-3-5-7-9-11-13-15-17-18-19-20-21-22-23-24-26-28-30-32-34-36-38-44(52)49-41(40-56-48-47(55)46(54)45(53)43(39-50)57-48)42(51)37-35-33-31-29-27-25-16-14-12-10-8-6-4-2/h41-43,45-48,50-51,53-55H,3-40H2,1-2H3,(H,49,52)/t41?,42?,43-,45-,46+,47-,48?/m1/s1

> <PUBCHEM_IUPAC_INCHIKEY>
SNPQGCDJHZAVOB-GFZFNKNSSA-N

> <PUBCHEM_XLOGP3_AA>
16.1

> <PUBCHEM_EXACT_MASS>
813.705769

> <PUBCHEM_MOLECULAR_FORMULA>
C48H95NO8

> <PUBCHEM_MOLECULAR_WEIGHT>
814.3

> <PUBCHEM_OPENEYE_CAN_SMILES>
CCCCCCCCCCCCCCCCCCCCCCCC(=O)NC(COC1C(C(C(C(O1)CO)O)O)O)C(CCCCCCCCCCCCCCC)O

> <PUBCHEM_OPENEYE_ISO_SMILES>
CCCCCCCCCCCCCCCCCCCCCCCC(=O)NC(COC1[C@@H]([C@H]([C@@H]([C@H](O1)CO)O)O)O)C(CCCCCCCCCCCCCCC)O

> <PUBCHEM_CACTVS_TPSA>
149

> <PUBCHEM_MONOISOTOPIC_WEIGHT>
813.705769

> <PUBCHEM_TOTAL_CHARGE>
0

> <PUBCHEM_HEAVY_ATOM_COUNT>
57

> <PUBCHEM_ATOM_DEF_STEREO_COUNT>
4

> <PUBCHEM_ATOM_UDEF_STEREO_COUNT>
3

> <PUBCHEM_BOND_DEF_STEREO_COUNT>
0

> <PUBCHEM_BOND_UDEF_STEREO_COUNT>
0

> <PUBCHEM_ISOTOPIC_ATOM_COUNT>
0

> <PUBCHEM_COMPONENT_COUNT>
1

> <PUBCHEM_CACTVS_TAUTO_COUNT>
-1

> <PUBCHEM_COORDINATE_TYPE>
1
5
255

> <PUBCHEM_BONDANNOTATIONS>
14  19  5
15  17  3
13  2  3
10  3  5
11  4  6
12  5  6
16  6  3

$$$$
