10239837
  -OEChem-09292001543D

 67 72  0     1  0  0  0  0  0999 V2000
    3.4734   -0.0434   -0.9435 O   0  0  0  0  0  0  0  0  0  0  0  0
   -1.9227    0.2210    0.4922 O   0  0  0  0  0  0  0  0  0  0  0  0
    1.0009   -1.5347   -1.3251 O   0  0  0  0  0  0  0  0  0  0  0  0
   -4.3041    1.7829    0.9216 O   0  0  0  0  0  0  0  0  0  0  0  0
    2.2428    2.3826    1.2097 O   0  0  0  0  0  0  0  0  0  0  0  0
   -1.2290    3.0167    4.3880 O   0  0  0  0  0  0  0  0  0  0  0  0
   -0.0711    3.2124   -1.5618 O   0  0  0  0  0  0  0  0  0  0  0  0
    4.2652    3.9406   -3.3672 O   0  0  0  0  0  0  0  0  0  0  0  0
   -4.7706   -0.7720   -3.4763 O   0  0  0  0  0  0  0  0  0  0  0  0
    4.9083   -5.7601    1.2715 O   0  0  0  0  0  0  0  0  0  0  0  0
   -6.2127   -3.0395   -2.7670 O   0  0  0  0  0  0  0  0  0  0  0  0
    0.6515    0.6797   -0.4271 C   0  0  1  0  0  0  0  0  0  0  0  0
    1.2374   -0.7234   -0.1680 C   0  0  2  0  0  0  0  0  0  0  0  0
    0.1318    1.2984    0.8622 C   0  0  0  0  0  0  0  0  0  0  0  0
    2.7421   -0.6492    0.1311 C   0  0  1  0  0  0  0  0  0  0  0  0
    1.6364    1.5515   -1.1838 C   0  0  0  0  0  0  0  0  0  0  0  0
   -1.1705    1.0378    1.2964 C   0  0  0  0  0  0  0  0  0  0  0  0
   -1.6556    1.6260    2.4713 C   0  0  0  0  0  0  0  0  0  0  0  0
   -3.9144    0.7602    1.8391 C   0  0  1  0  0  0  0  0  0  0  0  0
   -3.1018   -0.3186    1.1109 C   0  0  1  0  0  0  0  0  0  0  0  0
   -3.0618    1.3771    2.9462 C   0  0  0  0  0  0  0  0  0  0  0  0
    2.9620    1.1464   -1.3915 C   0  0  0  0  0  0  0  0  0  0  0  0
    0.9670    2.1231    1.6142 C   0  0  0  0  0  0  0  0  0  0  0  0
    3.3230   -2.0186    0.4362 C   0  0  0  0  0  0  0  0  0  0  0  0
   -0.8036    2.4449    3.2248 C   0  0  0  0  0  0  0  0  0  0  0  0
    1.2133    2.7787   -1.7211 C   0  0  0  0  0  0  0  0  0  0  0  0
    0.5012    2.6928    2.7971 C   0  0  0  0  0  0  0  0  0  0  0  0
   -3.9336   -1.0452    0.0704 C   0  0  0  0  0  0  0  0  0  0  0  0
    3.8386    1.9448   -2.1322 C   0  0  0  0  0  0  0  0  0  0  0  0
    2.0948    3.5809   -2.4463 C   0  0  0  0  0  0  0  0  0  0  0  0
    3.4066    3.1630   -2.6528 C   0  0  0  0  0  0  0  0  0  0  0  0
    3.3349   -2.4916    1.7471 C   0  0  0  0  0  0  0  0  0  0  0  0
    3.8420   -2.7994   -0.5948 C   0  0  0  0  0  0  0  0  0  0  0  0
   -3.9730   -0.5742   -1.2411 C   0  0  0  0  0  0  0  0  0  0  0  0
   -4.6572   -2.1819    0.4275 C   0  0  0  0  0  0  0  0  0  0  0  0
    3.8677   -3.7499    2.0278 C   0  0  0  0  0  0  0  0  0  0  0  0
    4.3749   -4.0576   -0.3142 C   0  0  0  0  0  0  0  0  0  0  0  0
   -4.7376   -1.2416   -2.1978 C   0  0  0  0  0  0  0  0  0  0  0  0
    4.3878   -4.5328    0.9971 C   0  0  0  0  0  0  0  0  0  0  0  0
   -5.4221   -2.8492   -0.5293 C   0  0  0  0  0  0  0  0  0  0  0  0
   -5.4622   -2.3790   -1.8418 C   0  0  0  0  0  0  0  0  0  0  0  0
   -0.1914    0.5398   -1.1192 H   0  0  0  0  0  0  0  0  0  0  0  0
    0.7088   -1.2218    0.6535 H   0  0  0  0  0  0  0  0  0  0  0  0
    2.9212   -0.0341    1.0215 H   0  0  0  0  0  0  0  0  0  0  0  0
   -4.8325    0.3410    2.2669 H   0  0  0  0  0  0  0  0  0  0  0  0
   -2.7574   -1.0707    1.8361 H   0  0  0  0  0  0  0  0  0  0  0  0
   -3.0153    0.6884    3.7985 H   0  0  0  0  0  0  0  0  0  0  0  0
   -3.5148    2.3180    3.2800 H   0  0  0  0  0  0  0  0  0  0  0  0
    1.1545    3.3324    3.3858 H   0  0  0  0  0  0  0  0  0  0  0  0
    1.4984   -1.1525   -2.0677 H   0  0  0  0  0  0  0  0  0  0  0  0
    4.8620    1.6178   -2.3006 H   0  0  0  0  0  0  0  0  0  0  0  0
    1.7491    4.5276   -2.8543 H   0  0  0  0  0  0  0  0  0  0  0  0
    2.9303   -1.8922    2.5582 H   0  0  0  0  0  0  0  0  0  0  0  0
    3.8351   -2.4540   -1.6250 H   0  0  0  0  0  0  0  0  0  0  0  0
   -4.8322    2.4337    1.4147 H   0  0  0  0  0  0  0  0  0  0  0  0
   -3.4211    0.3156   -1.5336 H   0  0  0  0  0  0  0  0  0  0  0  0
   -4.6356   -2.5564    1.4473 H   0  0  0  0  0  0  0  0  0  0  0  0
    2.6684    2.9721    1.8555 H   0  0  0  0  0  0  0  0  0  0  0  0
   -0.5067    3.5458    4.7675 H   0  0  0  0  0  0  0  0  0  0  0  0
   -0.6492    2.5057   -1.2395 H   0  0  0  0  0  0  0  0  0  0  0  0
    3.8744   -4.1149    3.0512 H   0  0  0  0  0  0  0  0  0  0  0  0
    4.7752   -4.6586   -1.1262 H   0  0  0  0  0  0  0  0  0  0  0  0
   -5.9822   -3.7338   -0.2382 H   0  0  0  0  0  0  0  0  0  0  0  0
    3.7993    4.7456   -3.6519 H   0  0  0  0  0  0  0  0  0  0  0  0
   -5.3475   -1.3539   -4.0010 H   0  0  0  0  0  0  0  0  0  0  0  0
    5.2221   -6.1616    0.4430 H   0  0  0  0  0  0  0  0  0  0  0  0
   -6.6429   -3.8007   -2.3411 H   0  0  0  0  0  0  0  0  0  0  0  0
  1 15  1  0  0  0  0
  1 22  1  0  0  0  0
  2 17  1  0  0  0  0
  2 20  1  0  0  0  0
  3 13  1  0  0  0  0
  3 50  1  0  0  0  0
  4 19  1  0  0  0  0
  4 55  1  0  0  0  0
  5 23  1  0  0  0  0
  5 58  1  0  0  0  0
  6 25  1  0  0  0  0
  6 59  1  0  0  0  0
  7 26  1  0  0  0  0
  7 60  1  0  0  0  0
  8 31  1  0  0  0  0
  8 64  1  0  0  0  0
  9 38  1  0  0  0  0
  9 65  1  0  0  0  0
 10 39  1  0  0  0  0
 10 66  1  0  0  0  0
 11 41  1  0  0  0  0
 11 67  1  0  0  0  0
 12 13  1  0  0  0  0
 12 14  1  0  0  0  0
 12 16  1  0  0  0  0
 12 42  1  0  0  0  0
 13 15  1  0  0  0  0
 13 43  1  0  0  0  0
 14 17  1  0  0  0  0
 14 23  2  0  0  0  0
 15 24  1  0  0  0  0
 15 44  1  0  0  0  0
 16 22  1  0  0  0  0
 16 26  2  0  0  0  0
 17 18  2  0  0  0  0
 18 21  1  0  0  0  0
 18 25  1  0  0  0  0
 19 20  1  0  0  0  0
 19 21  1  0  0  0  0
 19 45  1  0  0  0  0
 20 28  1  0  0  0  0
 20 46  1  0  0  0  0
 21 47  1  0  0  0  0
 21 48  1  0  0  0  0
 22 29  2  0  0  0  0
 23 27  1  0  0  0  0
 24 32  2  0  0  0  0
 24 33  1  0  0  0  0
 25 27  2  0  0  0  0
 26 30  1  0  0  0  0
 27 49  1  0  0  0  0
 28 34  2  0  0  0  0
 28 35  1  0  0  0  0
 29 31  1  0  0  0  0
 29 51  1  0  0  0  0
 30 31  2  0  0  0  0
 30 52  1  0  0  0  0
 32 36  1  0  0  0  0
 32 53  1  0  0  0  0
 33 37  2  0  0  0  0
 33 54  1  0  0  0  0
 34 38  1  0  0  0  0
 34 56  1  0  0  0  0
 35 40  2  0  0  0  0
 35 57  1  0  0  0  0
 36 39  2  0  0  0  0
 36 61  1  0  0  0  0
 37 39  1  0  0  0  0
 37 62  1  0  0  0  0
 38 41  2  0  0  0  0
 40 41  1  0  0  0  0
 40 63  1  0  0  0  0
M  END
> <PUBCHEM_COMPOUND_CID>
10239837

> <PUBCHEM_CONFORMER_RMSD>
0.8

> <PUBCHEM_CONFORMER_DIVERSEORDER>
3
22
8
38
31
10
42
1
32
14
40
11
23
41
43
37
25
2
9
16
39
33
7
13
21
27
19
29
5
28
12
18
24
30
4
34
20
26
35
36
6
17
15

> <PUBCHEM_MMFF94_PARTIAL_CHARGES>
60
1 -0.36
10 -0.53
11 -0.53
12 0.29
13 0.28
14 -0.14
15 0.42
16 -0.14
17 0.08
18 -0.14
19 0.28
2 -0.36
20 0.42
21 0.14
22 0.08
23 0.08
24 -0.14
25 0.08
26 0.08
27 -0.15
28 -0.14
29 -0.15
3 -0.68
30 -0.15
31 0.08
32 -0.15
33 -0.15
34 -0.15
35 -0.15
36 -0.15
37 -0.15
38 0.08
39 0.08
4 -0.68
40 -0.15
41 0.08
49 0.15
5 -0.53
50 0.4
51 0.15
52 0.15
53 0.15
54 0.15
55 0.4
56 0.15
57 0.15
58 0.45
59 0.45
6 -0.53
60 0.45
61 0.15
62 0.15
63 0.15
64 0.45
65 0.45
66 0.45
67 0.45
7 -0.53
8 -0.53
9 -0.53

> <PUBCHEM_EFFECTIVE_ROTOR_COUNT>
4.6

> <PUBCHEM_PHARMACOPHORE_FEATURES>
19
1 1 acceptor
1 10 donor
1 11 donor
1 2 acceptor
1 3 acceptor
1 3 donor
1 4 acceptor
1 4 donor
1 5 donor
1 6 donor
1 7 donor
1 8 donor
1 9 donor
6 1 12 13 15 16 22 rings
6 14 17 18 23 25 27 rings
6 16 22 26 29 30 31 rings
6 2 17 18 19 20 21 rings
6 24 32 33 36 37 39 rings
6 28 34 35 38 40 41 rings

> <PUBCHEM_HEAVY_ATOM_COUNT>
41

> <PUBCHEM_ATOM_DEF_STEREO_COUNT>
5

> <PUBCHEM_ATOM_UDEF_STEREO_COUNT>
0

> <PUBCHEM_BOND_DEF_STEREO_COUNT>
0

> <PUBCHEM_BOND_UDEF_STEREO_COUNT>
0

> <PUBCHEM_ISOTOPIC_ATOM_COUNT>
0

> <PUBCHEM_COMPONENT_COUNT>
1

> <PUBCHEM_CACTVS_TAUTO_COUNT>
994

> <PUBCHEM_CONFORMER_ID>
009C3F5D00000003

> <PUBCHEM_MMFF94_ENERGY>
133.6648

> <PUBCHEM_FEATURE_SELFOVERLAP>
96.501

> <PUBCHEM_SHAPE_FINGERPRINT>
10032420 55 17474397249234459214
10622 236 18411699851084424303
10928967 22 17843687909759517551
10940486 97 17409967667864623646
11069576 57 18410856590005897470
11135609 149 17967529043399173886
11135926 11 18042143084040231550
11285246 1 17241600615980913223
11377469 6 18047768008912081251
11578080 2 18338793391320998304
11763715 3 18131077012979976224
11991303 11 16959316721446652580
12655364 74 8496392111449867763
12655387 17 17775567534264820883
13009979 54 18200323112651800226
131258 38 17912902153241955886
13911987 19 17464284955047400100
14068700 675 18268416941475710394
14674994 50 17834665003038747796
14705955 166 15838168482245944603
15320294 125 17911816682293910035
16989713 51 17759799253001387238
17138139 8 17914636065872175924
17909252 39 18187913023704026837
19315092 285 18272640277470087240
19319366 153 18124315171004190694
20505436 4 17406051340448735160
20511986 3 18198649694614870880
20775530 9 18339933631569026371
21458453 9 16772361003714203362
25222932 49 17559667519941849784
44880168 125 17478331933689710830
5080951 261 17395847675285064986
5081480 168 17168149992397815789
5223283 242 17750498604115076615
57527293 21 17978516335038441490
57527295 17 18200598128672632355
59025328 239 18260260828840023892
5951187 136 16734359734685099461
6058803 2 18268733652295344497
613672 6 17677610865771214970
6677587 24 17246923613806128927
6691757 9 17760683595536579044
86090 222 17118889981862687467
9831232 110 17690825080683918527

> <PUBCHEM_SHAPE_MULTIPOLES>
779.2
11.75
6.39
3.98
10.65
4.8
0.83
14.07
-6.56
-9.82
-0.12
2.06
-3.78
-8.57

> <PUBCHEM_SHAPE_SELFOVERLAP>
1754.904

> <PUBCHEM_SHAPE_VOLUME>
403.4

> <PUBCHEM_COORDINATE_TYPE>
2
5
10

$$$$
