102004711
  -OEChem-09292002143D

 81 85  0     1  0  0  0  0  0999 V2000
   -3.2319    2.1240   -1.8135 O   0  0  0  0  0  0  0  0  0  0  0  0
    7.3811   -0.9856   -0.6185 O   0  0  0  0  0  0  0  0  0  0  0  0
   -4.3364   -2.4068   -1.1932 O   0  0  0  0  0  0  0  0  0  0  0  0
    3.2030    3.3598    1.3132 O   0  0  0  0  0  0  0  0  0  0  0  0
   -5.9838   -1.6387    0.1824 O   0  0  0  0  0  0  0  0  0  0  0  0
    0.7869   -0.9570   -0.2380 C   0  0  2  0  0  0  0  0  0  0  0  0
    1.5561    0.4091    0.0251 C   0  0  1  0  0  0  0  0  0  0  0  0
   -0.6467   -0.8490    0.5111 C   0  0  1  0  0  0  0  0  0  0  0  0
    3.0522    0.4139   -0.4468 C   0  0  2  0  0  0  0  0  0  0  0  0
    3.7078   -0.7877    0.3067 C   0  0  1  0  0  0  0  0  0  0  0  0
    1.6352   -2.1691    0.2812 C   0  0  0  0  0  0  0  0  0  0  0  0
   -1.4640    0.2979   -0.1231 C   0  0  0  0  0  0  0  0  0  0  0  0
   -2.9540    0.0049   -0.5079 C   0  0  1  0  0  0  0  0  0  0  0  0
    3.1322   -2.1368   -0.0936 C   0  0  0  0  0  0  0  0  0  0  0  0
   -3.6840   -0.9300    0.5317 C   0  0  1  0  0  0  0  0  0  0  0  0
   -1.4348   -2.1793    0.4318 C   0  0  0  0  0  0  0  0  0  0  0  0
    0.7069    1.6300   -0.3839 C   0  0  0  0  0  0  0  0  0  0  0  0
    5.2307   -0.5440    0.3239 C   0  0  2  0  0  0  0  0  0  0  0  0
   -2.8115   -2.0911    1.0822 C   0  0  0  0  0  0  0  0  0  0  0  0
    4.0055    1.4913    0.0680 C   0  0  0  0  0  0  0  0  0  0  0  0
    0.5588   -1.2116   -1.7617 C   0  0  0  0  0  0  0  0  0  0  0  0
   -3.9015    1.2155   -0.9328 C   0  0  1  0  0  0  0  0  0  0  0  0
   -0.7862    1.4213   -0.4484 C   0  0  0  0  0  0  0  0  0  0  0  0
   -0.4719   -0.5026    2.0280 C   0  0  0  0  0  0  0  0  0  0  0  0
    3.2151    0.4019   -1.9868 C   0  0  0  0  0  0  0  0  0  0  0  0
    5.1996    0.9673    0.4103 C   0  0  0  0  0  0  0  0  0  0  0  0
   -4.2764   -0.1211    1.7084 C   0  0  0  0  0  0  0  0  0  0  0  0
   -4.4606    2.0000    0.2854 C   0  0  1  0  0  0  0  0  0  0  0  0
   -5.1483    1.0623    1.2885 C   0  0  0  0  0  0  0  0  0  0  0  0
    5.9964   -1.0505   -0.9000 C   0  0  0  0  0  0  0  0  0  0  0  0
    5.8672   -1.1443    1.5878 C   0  0  0  0  0  0  0  0  0  0  0  0
   -4.8092   -1.6785   -0.1523 C   0  0  0  0  0  0  0  0  0  0  0  0
    3.6926    2.9453    0.0469 C   0  0  0  0  0  0  0  0  0  0  0  0
   -5.0900    0.7515   -1.8144 C   0  0  0  0  0  0  0  0  0  0  0  0
   -3.4361    2.8875    1.0022 C   0  0  0  0  0  0  0  0  0  0  0  0
    1.6485    0.5059    1.1140 H   0  0  0  0  0  0  0  0  0  0  0  0
    3.4084   -0.6885    1.3679 H   0  0  0  0  0  0  0  0  0  0  0  0
    1.2116   -3.1136   -0.0820 H   0  0  0  0  0  0  0  0  0  0  0  0
    1.5819   -2.2176    1.3738 H   0  0  0  0  0  0  0  0  0  0  0  0
   -2.8164   -0.5667   -1.4392 H   0  0  0  0  0  0  0  0  0  0  0  0
    3.6446   -2.9395    0.4498 H   0  0  0  0  0  0  0  0  0  0  0  0
    3.2706   -2.3496   -1.1564 H   0  0  0  0  0  0  0  0  0  0  0  0
   -0.8786   -2.9803    0.9331 H   0  0  0  0  0  0  0  0  0  0  0  0
   -1.5756   -2.5065   -0.6024 H   0  0  0  0  0  0  0  0  0  0  0  0
    1.0106    1.9923   -1.3707 H   0  0  0  0  0  0  0  0  0  0  0  0
    0.8911    2.4534    0.3152 H   0  0  0  0  0  0  0  0  0  0  0  0
   -3.2953   -3.0718    0.9694 H   0  0  0  0  0  0  0  0  0  0  0  0
   -2.6976   -2.0032    2.1691 H   0  0  0  0  0  0  0  0  0  0  0  0
    0.1410   -0.3472   -2.2842 H   0  0  0  0  0  0  0  0  0  0  0  0
   -0.1140   -2.0539   -1.9406 H   0  0  0  0  0  0  0  0  0  0  0  0
    1.4770   -1.4869   -2.2806 H   0  0  0  0  0  0  0  0  0  0  0  0
   -1.2782    2.2733   -0.8916 H   0  0  0  0  0  0  0  0  0  0  0  0
    0.1085   -1.2650    2.5548 H   0  0  0  0  0  0  0  0  0  0  0  0
   -1.4240   -0.4191    2.5547 H   0  0  0  0  0  0  0  0  0  0  0  0
    0.0025    0.4666    2.2036 H   0  0  0  0  0  0  0  0  0  0  0  0
    3.3725   -0.6006   -2.3890 H   0  0  0  0  0  0  0  0  0  0  0  0
    2.3540    0.8335   -2.5028 H   0  0  0  0  0  0  0  0  0  0  0  0
    4.0759    0.9923   -2.3258 H   0  0  0  0  0  0  0  0  0  0  0  0
    6.0490    1.5577    0.7281 H   0  0  0  0  0  0  0  0  0  0  0  0
   -4.8708   -0.7735    2.3623 H   0  0  0  0  0  0  0  0  0  0  0  0
   -3.4664    0.2645    2.3362 H   0  0  0  0  0  0  0  0  0  0  0  0
   -5.2219    2.7002   -0.0883 H   0  0  0  0  0  0  0  0  0  0  0  0
   -6.0979    0.7096    0.8749 H   0  0  0  0  0  0  0  0  0  0  0  0
   -5.4291    1.6264    2.1875 H   0  0  0  0  0  0  0  0  0  0  0  0
    5.7495   -2.0957   -1.1126 H   0  0  0  0  0  0  0  0  0  0  0  0
    5.8043   -0.4599   -1.7990 H   0  0  0  0  0  0  0  0  0  0  0  0
    5.8792   -2.2391    1.5404 H   0  0  0  0  0  0  0  0  0  0  0  0
    5.3129   -0.8639    2.4920 H   0  0  0  0  0  0  0  0  0  0  0  0
    6.8949   -0.7970    1.7444 H   0  0  0  0  0  0  0  0  0  0  0  0
    2.9686    3.1958   -0.7326 H   0  0  0  0  0  0  0  0  0  0  0  0
    4.5997    3.5236   -0.1629 H   0  0  0  0  0  0  0  0  0  0  0  0
   -5.5309    1.6117   -2.3361 H   0  0  0  0  0  0  0  0  0  0  0  0
   -5.9069    0.2808   -1.2724 H   0  0  0  0  0  0  0  0  0  0  0  0
   -4.7496    0.0718   -2.6040 H   0  0  0  0  0  0  0  0  0  0  0  0
   -2.9625    3.5888    0.3085 H   0  0  0  0  0  0  0  0  0  0  0  0
   -2.6558    2.3086    1.5014 H   0  0  0  0  0  0  0  0  0  0  0  0
   -3.9317    3.4886    1.7733 H   0  0  0  0  0  0  0  0  0  0  0  0
   -2.8806    1.6112   -2.5619 H   0  0  0  0  0  0  0  0  0  0  0  0
    7.8501   -1.3240   -1.4001 H   0  0  0  0  0  0  0  0  0  0  0  0
   -5.0512   -2.8984   -1.6507 H   0  0  0  0  0  0  0  0  0  0  0  0
    3.0163    4.3120    1.2498 H   0  0  0  0  0  0  0  0  0  0  0  0
  1 22  1  0  0  0  0
  1 78  1  0  0  0  0
  2 30  1  0  0  0  0
  2 79  1  0  0  0  0
  3 32  1  0  0  0  0
  3 80  1  0  0  0  0
  4 33  1  0  0  0  0
  4 81  1  0  0  0  0
  5 32  2  0  0  0  0
  6  7  1  0  0  0  0
  6  8  1  0  0  0  0
  6 11  1  0  0  0  0
  6 21  1  0  0  0  0
  7  9  1  0  0  0  0
  7 17  1  0  0  0  0
  7 36  1  0  0  0  0
  8 12  1  0  0  0  0
  8 16  1  0  0  0  0
  8 24  1  0  0  0  0
  9 10  1  0  0  0  0
  9 20  1  0  0  0  0
  9 25  1  0  0  0  0
 10 14  1  0  0  0  0
 10 18  1  0  0  0  0
 10 37  1  0  0  0  0
 11 14  1  0  0  0  0
 11 38  1  0  0  0  0
 11 39  1  0  0  0  0
 12 13  1  0  0  0  0
 12 23  2  0  0  0  0
 13 15  1  0  0  0  0
 13 22  1  0  0  0  0
 13 40  1  0  0  0  0
 14 41  1  0  0  0  0
 14 42  1  0  0  0  0
 15 19  1  0  0  0  0
 15 27  1  0  0  0  0
 15 32  1  0  0  0  0
 16 19  1  0  0  0  0
 16 43  1  0  0  0  0
 16 44  1  0  0  0  0
 17 23  1  0  0  0  0
 17 45  1  0  0  0  0
 17 46  1  0  0  0  0
 18 26  1  0  0  0  0
 18 30  1  0  0  0  0
 18 31  1  0  0  0  0
 19 47  1  0  0  0  0
 19 48  1  0  0  0  0
 20 26  2  0  0  0  0
 20 33  1  0  0  0  0
 21 49  1  0  0  0  0
 21 50  1  0  0  0  0
 21 51  1  0  0  0  0
 22 28  1  0  0  0  0
 22 34  1  0  0  0  0
 23 52  1  0  0  0  0
 24 53  1  0  0  0  0
 24 54  1  0  0  0  0
 24 55  1  0  0  0  0
 25 56  1  0  0  0  0
 25 57  1  0  0  0  0
 25 58  1  0  0  0  0
 26 59  1  0  0  0  0
 27 29  1  0  0  0  0
 27 60  1  0  0  0  0
 27 61  1  0  0  0  0
 28 29  1  0  0  0  0
 28 35  1  0  0  0  0
 28 62  1  0  0  0  0
 29 63  1  0  0  0  0
 29 64  1  0  0  0  0
 30 65  1  0  0  0  0
 30 66  1  0  0  0  0
 31 67  1  0  0  0  0
 31 68  1  0  0  0  0
 31 69  1  0  0  0  0
 33 70  1  0  0  0  0
 33 71  1  0  0  0  0
 34 72  1  0  0  0  0
 34 73  1  0  0  0  0
 34 74  1  0  0  0  0
 35 75  1  0  0  0  0
 35 76  1  0  0  0  0
 35 77  1  0  0  0  0
M  END
> <PUBCHEM_COMPOUND_CID>
102004711

> <PUBCHEM_CONFORMER_RMSD>
0.8

> <PUBCHEM_CONFORMER_DIVERSEORDER>
2
1

> <PUBCHEM_MMFF94_PARTIAL_CHARGES>
25
1 -0.68
12 -0.28
13 0.14
15 0.06
17 0.14
18 0.14
2 -0.68
20 -0.28
22 0.28
23 -0.29
26 -0.29
3 -0.65
30 0.28
32 0.66
33 0.42
4 -0.68
5 -0.57
52 0.15
59 0.15
78 0.4
79 0.4
8 0.14
80 0.5
81 0.4
9 0.14

> <PUBCHEM_EFFECTIVE_ROTOR_COUNT>
5

> <PUBCHEM_PHARMACOPHORE_FEATURES>
14
1 1 acceptor
1 1 donor
1 2 acceptor
1 2 donor
1 3 acceptor
1 4 acceptor
1 4 donor
1 5 acceptor
3 3 5 32 anion
5 9 10 18 20 26 rings
6 13 15 22 27 28 29 rings
6 6 7 8 12 17 23 rings
6 6 7 9 10 11 14 rings
6 8 12 13 15 16 19 rings

> <PUBCHEM_HEAVY_ATOM_COUNT>
35

> <PUBCHEM_ATOM_DEF_STEREO_COUNT>
10

> <PUBCHEM_ATOM_UDEF_STEREO_COUNT>
0

> <PUBCHEM_BOND_DEF_STEREO_COUNT>
0

> <PUBCHEM_BOND_UDEF_STEREO_COUNT>
0

> <PUBCHEM_ISOTOPIC_ATOM_COUNT>
0

> <PUBCHEM_COMPONENT_COUNT>
1

> <PUBCHEM_CACTVS_TAUTO_COUNT>
1

> <PUBCHEM_CONFORMER_ID>
061477E700000002

> <PUBCHEM_MMFF94_ENERGY>
171.8066

> <PUBCHEM_FEATURE_SELFOVERLAP>
71.219

> <PUBCHEM_SHAPE_FINGERPRINT>
10675989 125 16316100765008666237
11007060 377 17168434851851187352
11045977 3 18335419075822598228
11405975 8 18408885148545523472
11578080 2 17344046727452177536
12107698 1 18411697716221310503
12166972 35 18335425685988653092
12236239 1 17917998295347304842
12403259 415 18259703410920686556
12422481 6 18335134246539700398
12633257 1 18261670381561977640
12788726 201 17201643238283453961
131258 38 13125955115740426593
13140716 1 18409451422803794112
13224815 77 18272937132719279821
13583140 156 18408878521057518950
13782708 43 18201439228549497286
13811026 1 18335691763138180188
13944108 23 16313842381363544589
14849402 71 18339084908184161816
15021287 119 16733273373951992372
15183329 4 18260264123275163858
15361156 5 18186811270171659916
15788980 27 17530966873490611821
17349148 13 17676212372383591820
17844677 252 18342463650853196624
17980427 23 17749401355196723822
18681886 176 18273492386666703146
20028762 73 18272931657000910150
21033648 144 18338513170004264924
21033648 29 17749377144587752525
21133410 127 17535179270015376884
21236236 1 18408040715215308671
21267235 1 18335146413781636546
21315763 129 18342741831711044264
21315764 268 18337104691293296617
21709351 56 18412824690033527166
22393880 68 18334568040584382951
23522609 53 17970658241187951244
23559900 14 18334573564492912060
23569943 247 17556863525422635158
3004659 81 18113337518595614654
32027 91 17557438591125208382
350125 39 18334863809898134836
392239 28 18411706482439764993
4015057 19 18271801367141040585
460360 51 18115035099465021521
469060 322 17458637743964083225
508706 21 17603861213384311117
5104073 3 18335421296067593840
59755656 215 18335704880511829190
6086070 43 18263343867997357688
7226269 152 18187085009875288360

> <PUBCHEM_SHAPE_MULTIPOLES>
690.94
14.7
2.97
1.57
7.7
1.2
-0.13
-0.92
0.19
-0.63
0.41
-0.66
0.12
0.31

> <PUBCHEM_SHAPE_SELFOVERLAP>
1482.769

> <PUBCHEM_SHAPE_VOLUME>
375.1

> <PUBCHEM_COORDINATE_TYPE>
2
5
10

$$$$
