637229
  -OEChem-09292002153D

 81 85  0     1  0  0  0  0  0999 V2000
    3.5283   -1.7327    1.6077 O   0  0  0  0  0  0  0  0  0  0  0  0
   -5.5250   -2.8664   -0.9058 O   0  0  0  0  0  0  0  0  0  0  0  0
   -6.5356   -1.3510    1.0105 O   0  0  0  0  0  0  0  0  0  0  0  0
    3.9791    3.1750   -0.7710 O   0  0  0  0  0  0  0  0  0  0  0  0
    2.7959    1.7704   -2.1212 O   0  0  0  0  0  0  0  0  0  0  0  0
   -0.5621    0.9489    0.1143 C   0  0  2  0  0  0  0  0  0  0  0  0
   -1.3601   -0.3053   -0.4018 C   0  0  1  0  0  0  0  0  0  0  0  0
    0.8774    0.4169    0.6903 C   0  0  1  0  0  0  0  0  0  0  0  0
   -2.9146   -0.1096   -0.6925 C   0  0  2  0  0  0  0  0  0  0  0  0
   -3.5442    0.5492    0.5905 C   0  0  1  0  0  0  0  0  0  0  0  0
   -1.3723    1.6990    1.2111 C   0  0  0  0  0  0  0  0  0  0  0  0
    1.6141   -0.3773   -0.4143 C   0  0  0  0  0  0  0  0  0  0  0  0
    3.1539   -0.4351   -0.4701 C   0  0  1  0  0  0  0  0  0  0  0  0
   -2.8579    1.8951    0.9011 C   0  0  0  0  0  0  0  0  0  0  0  0
    3.7744    0.9292   -0.0556 C   0  0  1  0  0  0  0  0  0  0  0  0
    1.7037    1.6159    1.2462 C   0  0  0  0  0  0  0  0  0  0  0  0
   -0.5804   -1.0299   -1.5239 C   0  0  0  0  0  0  0  0  0  0  0  0
   -5.1103    0.5881    0.6599 C   0  0  0  0  0  0  0  0  0  0  0  0
   -3.5586   -1.5182   -0.8616 C   0  0  0  0  0  0  0  0  0  0  0  0
    3.2185    1.4047    1.2956 C   0  0  0  0  0  0  0  0  0  0  0  0
   -0.3332    1.9719   -1.0451 C   0  0  0  0  0  0  0  0  0  0  0  0
    3.8182   -1.6987    0.2111 C   0  0  1  0  0  0  0  0  0  0  0  0
    0.9132   -0.9976   -1.3866 C   0  0  0  0  0  0  0  0  0  0  0  0
    0.6876   -0.5776    1.8776 C   0  0  0  0  0  0  0  0  0  0  0  0
   -3.1856    0.6982   -1.9867 C   0  0  0  0  0  0  0  0  0  0  0  0
    5.3147    0.8902   -0.0444 C   0  0  0  0  0  0  0  0  0  0  0  0
   -5.0836   -1.5168   -0.8846 C   0  0  2  0  0  0  0  0  0  0  0  0
    5.3703   -1.6221    0.0803 C   0  0  1  0  0  0  0  0  0  0  0  0
   -5.6448   -0.8218    0.3428 C   0  0  0  0  0  0  0  0  0  0  0  0
    5.9009   -0.3109    0.6758 C   0  0  0  0  0  0  0  0  0  0  0  0
   -5.7821    1.5951   -0.2832 C   0  0  0  0  0  0  0  0  0  0  0  0
   -5.5593    0.9477    2.0999 C   0  0  0  0  0  0  0  0  0  0  0  0
    3.4468    1.9748   -1.1073 C   0  0  0  0  0  0  0  0  0  0  0  0
    3.3001   -3.0112   -0.4105 C   0  0  0  0  0  0  0  0  0  0  0  0
    6.1125   -2.7881    0.7515 C   0  0  0  0  0  0  0  0  0  0  0  0
   -1.3561   -1.0117    0.4401 H   0  0  0  0  0  0  0  0  0  0  0  0
   -3.2599   -0.1208    1.4200 H   0  0  0  0  0  0  0  0  0  0  0  0
   -0.9246    2.6819    1.4057 H   0  0  0  0  0  0  0  0  0  0  0  0
   -1.3302    1.1689    2.1647 H   0  0  0  0  0  0  0  0  0  0  0  0
    3.4146   -0.5583   -1.5353 H   0  0  0  0  0  0  0  0  0  0  0  0
   -3.3043    2.3616    1.7847 H   0  0  0  0  0  0  0  0  0  0  0  0
   -2.9874    2.6181    0.0918 H   0  0  0  0  0  0  0  0  0  0  0  0
    1.3571    1.8654    2.2582 H   0  0  0  0  0  0  0  0  0  0  0  0
    1.5360    2.5268    0.6705 H   0  0  0  0  0  0  0  0  0  0  0  0
   -0.8084   -0.6122   -2.5071 H   0  0  0  0  0  0  0  0  0  0  0  0
   -0.8887   -2.0817   -1.5564 H   0  0  0  0  0  0  0  0  0  0  0  0
   -3.2268   -2.1765   -0.0461 H   0  0  0  0  0  0  0  0  0  0  0  0
   -3.1990   -1.9968   -1.7817 H   0  0  0  0  0  0  0  0  0  0  0  0
    3.6845    2.3503    1.6025 H   0  0  0  0  0  0  0  0  0  0  0  0
    3.4640    0.6950    2.0916 H   0  0  0  0  0  0  0  0  0  0  0  0
    0.2024    2.8672   -0.7217 H   0  0  0  0  0  0  0  0  0  0  0  0
    0.2150    1.5510   -1.8897 H   0  0  0  0  0  0  0  0  0  0  0  0
   -1.2722    2.3519   -1.4459 H   0  0  0  0  0  0  0  0  0  0  0  0
    1.4496   -1.5275   -2.1711 H   0  0  0  0  0  0  0  0  0  0  0  0
    1.6042   -0.6853    2.4626 H   0  0  0  0  0  0  0  0  0  0  0  0
   -0.0637   -0.2542    2.5989 H   0  0  0  0  0  0  0  0  0  0  0  0
    0.4079   -1.5834    1.5444 H   0  0  0  0  0  0  0  0  0  0  0  0
   -3.2502    1.7735   -1.8150 H   0  0  0  0  0  0  0  0  0  0  0  0
   -2.4236    0.5432   -2.7517 H   0  0  0  0  0  0  0  0  0  0  0  0
   -4.1225    0.4173   -2.4720 H   0  0  0  0  0  0  0  0  0  0  0  0
    5.7260    1.7986    0.4156 H   0  0  0  0  0  0  0  0  0  0  0  0
    5.6941    0.8832   -1.0766 H   0  0  0  0  0  0  0  0  0  0  0  0
   -5.4832   -1.0324   -1.7787 H   0  0  0  0  0  0  0  0  0  0  0  0
    5.6290   -1.6444   -0.9876 H   0  0  0  0  0  0  0  0  0  0  0  0
    6.9933   -0.2742    0.5792 H   0  0  0  0  0  0  0  0  0  0  0  0
    5.6841   -0.2528    1.7490 H   0  0  0  0  0  0  0  0  0  0  0  0
   -6.8609    1.6445   -0.0891 H   0  0  0  0  0  0  0  0  0  0  0  0
   -5.3815    2.6048   -0.1492 H   0  0  0  0  0  0  0  0  0  0  0  0
   -5.6876    1.3262   -1.3357 H   0  0  0  0  0  0  0  0  0  0  0  0
   -5.0950    0.2840    2.8383 H   0  0  0  0  0  0  0  0  0  0  0  0
   -5.3117    1.9803    2.3635 H   0  0  0  0  0  0  0  0  0  0  0  0
   -6.6454    0.8496    2.2179 H   0  0  0  0  0  0  0  0  0  0  0  0
    2.2230   -3.1250   -0.2513 H   0  0  0  0  0  0  0  0  0  0  0  0
    3.5088   -3.0588   -1.4838 H   0  0  0  0  0  0  0  0  0  0  0  0
    3.7364   -3.8936    0.0675 H   0  0  0  0  0  0  0  0  0  0  0  0
    5.8657   -3.7478    0.2898 H   0  0  0  0  0  0  0  0  0  0  0  0
    7.1958   -2.6612    0.6422 H   0  0  0  0  0  0  0  0  0  0  0  0
    5.8996   -2.8513    1.8231 H   0  0  0  0  0  0  0  0  0  0  0  0
    3.7310   -2.6187    1.9507 H   0  0  0  0  0  0  0  0  0  0  0  0
   -6.4922   -2.8559   -1.0073 H   0  0  0  0  0  0  0  0  0  0  0  0
    3.7777    3.8648   -1.4386 H   0  0  0  0  0  0  0  0  0  0  0  0
  1 22  1  0  0  0  0
  1 79  1  0  0  0  0
  2 27  1  0  0  0  0
  2 80  1  0  0  0  0
  3 29  2  0  0  0  0
  4 33  1  0  0  0  0
  4 81  1  0  0  0  0
  5 33  2  0  0  0  0
  6  7  1  0  0  0  0
  6  8  1  0  0  0  0
  6 11  1  0  0  0  0
  6 21  1  0  0  0  0
  7  9  1  0  0  0  0
  7 17  1  0  0  0  0
  7 36  1  0  0  0  0
  8 12  1  0  0  0  0
  8 16  1  0  0  0  0
  8 24  1  0  0  0  0
  9 10  1  0  0  0  0
  9 19  1  0  0  0  0
  9 25  1  0  0  0  0
 10 14  1  0  0  0  0
 10 18  1  0  0  0  0
 10 37  1  0  0  0  0
 11 14  1  0  0  0  0
 11 38  1  0  0  0  0
 11 39  1  0  0  0  0
 12 13  1  0  0  0  0
 12 23  2  0  0  0  0
 13 15  1  0  0  0  0
 13 22  1  0  0  0  0
 13 40  1  0  0  0  0
 14 41  1  0  0  0  0
 14 42  1  0  0  0  0
 15 20  1  0  0  0  0
 15 26  1  0  0  0  0
 15 33  1  0  0  0  0
 16 20  1  0  0  0  0
 16 43  1  0  0  0  0
 16 44  1  0  0  0  0
 17 23  1  0  0  0  0
 17 45  1  0  0  0  0
 17 46  1  0  0  0  0
 18 29  1  0  0  0  0
 18 31  1  0  0  0  0
 18 32  1  0  0  0  0
 19 27  1  0  0  0  0
 19 47  1  0  0  0  0
 19 48  1  0  0  0  0
 20 49  1  0  0  0  0
 20 50  1  0  0  0  0
 21 51  1  0  0  0  0
 21 52  1  0  0  0  0
 21 53  1  0  0  0  0
 22 28  1  0  0  0  0
 22 34  1  0  0  0  0
 23 54  1  0  0  0  0
 24 55  1  0  0  0  0
 24 56  1  0  0  0  0
 24 57  1  0  0  0  0
 25 58  1  0  0  0  0
 25 59  1  0  0  0  0
 25 60  1  0  0  0  0
 26 30  1  0  0  0  0
 26 61  1  0  0  0  0
 26 62  1  0  0  0  0
 27 29  1  0  0  0  0
 27 63  1  0  0  0  0
 28 30  1  0  0  0  0
 28 35  1  0  0  0  0
 28 64  1  0  0  0  0
 30 65  1  0  0  0  0
 30 66  1  0  0  0  0
 31 67  1  0  0  0  0
 31 68  1  0  0  0  0
 31 69  1  0  0  0  0
 32 70  1  0  0  0  0
 32 71  1  0  0  0  0
 32 72  1  0  0  0  0
 34 73  1  0  0  0  0
 34 74  1  0  0  0  0
 34 75  1  0  0  0  0
 35 76  1  0  0  0  0
 35 77  1  0  0  0  0
 35 78  1  0  0  0  0
M  END
> <PUBCHEM_COMPOUND_CID>
637229

> <PUBCHEM_CONFORMER_RMSD>
0.8

> <PUBCHEM_CONFORMER_DIVERSEORDER>
1

> <PUBCHEM_MMFF94_PARTIAL_CHARGES>
20
1 -0.68
12 -0.28
13 0.14
15 0.06
17 0.14
18 0.06
2 -0.68
22 0.28
23 -0.29
27 0.34
29 0.45
3 -0.57
33 0.66
4 -0.65
5 -0.57
54 0.15
79 0.4
8 0.14
80 0.4
81 0.5

> <PUBCHEM_EFFECTIVE_ROTOR_COUNT>
3.4

> <PUBCHEM_PHARMACOPHORE_FEATURES>
14
1 1 acceptor
1 1 donor
1 2 acceptor
1 2 donor
1 3 acceptor
1 4 acceptor
1 5 acceptor
3 18 31 32 hydrophobe
3 4 5 33 anion
6 13 15 22 26 28 30 rings
6 6 7 8 12 17 23 rings
6 6 7 9 10 11 14 rings
6 8 12 13 15 16 20 rings
6 9 10 18 19 27 29 rings

> <PUBCHEM_HEAVY_ATOM_COUNT>
35

> <PUBCHEM_ATOM_DEF_STEREO_COUNT>
10

> <PUBCHEM_ATOM_UDEF_STEREO_COUNT>
0

> <PUBCHEM_BOND_DEF_STEREO_COUNT>
0

> <PUBCHEM_BOND_UDEF_STEREO_COUNT>
0

> <PUBCHEM_ISOTOPIC_ATOM_COUNT>
0

> <PUBCHEM_COMPONENT_COUNT>
1

> <PUBCHEM_CACTVS_TAUTO_COUNT>
4

> <PUBCHEM_CONFORMER_ID>
0009B92D00000001

> <PUBCHEM_MMFF94_ENERGY>
151.9581

> <PUBCHEM_FEATURE_SELFOVERLAP>
71.188

> <PUBCHEM_SHAPE_FINGERPRINT>
10595046 47 18339926016634110989
11089746 13 9223229650399711258
11756154 67 17624990335352873022
12107183 9 17838061398857183299
12107698 1 18187645760831996804
12166972 35 18333452058089888476
12236239 1 18410856559655886752
12422481 6 17987802904044172093
12616971 3 18407764728937880901
12633257 1 17846780676589937377
12788726 201 17132126718622782200
13224815 77 18272369780319086501
13533116 47 18335140921019326024
13726171 33 17415861320493400200
13782708 43 17096080273947344810
14068700 675 18341051797167787650
14341114 176 18342741784334710478
14849402 71 18199743803964702784
14856354 85 18131357453360347447
15131766 46 18117848921989788981
15142383 8 18270114608845485928
15183329 4 18202565072626474621
15238133 3 17489314040341765249
15250474 111 18272645783792812135
15788980 27 18409728439255966913
15799311 1 18342469174445117291
1601671 61 17632865230312798669
17349148 13 18334298673194520980
17492 89 18269274556651231062
17844677 252 18114183012667012221
17857418 61 18343299253957263619
1813 80 18114188501255246229
19319366 153 18340199795404311582
19377110 9 18343587355983999067
20028762 73 18411697664977965998
20511986 3 18342164583716782925
21033648 29 16805315613186769196
21267235 1 18272373023884753054
22393880 68 17458332010236592349
23522609 53 18126594346902848193
23559900 14 18343008987267004721
23569914 152 16378270627419641255
23569943 247 17606109585603871722
3004659 81 18409726240333087810
338550 245 18343019982510064782
3411729 13 16629383935190955368
34797466 226 16371012952810934941
350125 39 18343018874482186300
3633792 109 18114446930302915239
3680242 22 18130797719561899210
392239 28 18343027674996945547
4015057 19 18041002903230479897
4073 2 18335703909163340299
4340502 62 18187364354896341090
439807 62 18411980295696005091
460360 51 17915477003420654265
46194498 28 17675923222843863612
5104073 3 17917426544757786419
6086070 43 17169248404477385092
67856867 119 18411981386142808084
70251023 43 18040432157868938680
7495541 125 18202280320595122120

> <PUBCHEM_SHAPE_MULTIPOLES>
690.94
15.25
2.85
1.67
6.55
0.6
-0.03
5.38
3.04
-1.72
-0.32
0.49
-0.36
-1.83

> <PUBCHEM_SHAPE_SELFOVERLAP>
1479.117

> <PUBCHEM_SHAPE_VOLUME>
377.3

> <PUBCHEM_COORDINATE_TYPE>
2
5
10

$$$$
