21723831
  -OEChem-11202007453D

 71 77  0     1  0  0  0  0  0999 V2000
    0.5094   -0.2642   -0.8601 O   0  0  0  0  0  0  0  0  0  0  0  0
   -2.4298    2.5002    0.6113 O   0  0  0  0  0  0  0  0  0  0  0  0
   -2.8931    0.7375   -0.8372 O   0  0  0  0  0  0  0  0  0  0  0  0
   -2.9305   -1.4922   -0.1506 O   0  0  0  0  0  0  0  0  0  0  0  0
    1.5774    4.8457    0.5365 O   0  0  0  0  0  0  0  0  0  0  0  0
    0.3735    4.9428    2.5115 O   0  0  0  0  0  0  0  0  0  0  0  0
   -5.6664    0.9244   -0.3066 O   0  0  0  0  0  0  0  0  0  0  0  0
   -7.0127   -1.6843   -0.5579 O   0  0  0  0  0  0  0  0  0  0  0  0
   -5.6264   -3.6921    0.9923 O   0  0  0  0  0  0  0  0  0  0  0  0
   -1.4014   -3.4580    1.0127 O   0  0  0  0  0  0  0  0  0  0  0  0
    2.1072    1.0932   -1.9535 N   0  0  2  0  0  0  0  0  0  0  0  0
    2.8130   -1.0933    1.0597 N   0  0  0  0  0  0  0  0  0  0  0  0
    1.7430    0.4552   -0.6608 C   0  0  1  0  0  0  0  0  0  0  0  0
   -0.7298    1.7959   -1.0605 C   0  0  2  0  0  0  0  0  0  0  0  0
   -0.1708    0.5610   -1.8184 C   0  0  1  0  0  0  0  0  0  0  0  0
    0.3759    2.5544   -0.2671 C   0  0  2  0  0  0  0  0  0  0  0  0
    1.4225    1.5799    0.3375 C   0  0  0  0  0  0  0  0  0  0  0  0
    0.9527    0.8370   -2.8166 C   0  0  0  0  0  0  0  0  0  0  0  0
    2.7334   -0.5463   -0.1895 C   0  0  0  0  0  0  0  0  0  0  0  0
   -1.8639    1.3837   -0.0882 C   0  0  1  0  0  0  0  0  0  0  0  0
    3.4036    0.7543   -2.5555 C   0  0  0  0  0  0  0  0  0  0  0  0
    3.7151   -1.1132   -0.9714 C   0  0  0  0  0  0  0  0  0  0  0  0
   -0.2274    3.4493    0.7718 C   0  0  0  0  0  0  0  0  0  0  0  0
    3.8629   -0.7086   -2.3924 C   0  0  0  0  0  0  0  0  0  0  0  0
    4.4316   -2.0391   -0.1687 C   0  0  0  0  0  0  0  0  0  0  0  0
   -1.5193    3.3916    1.1094 C   0  0  0  0  0  0  0  0  0  0  0  0
    3.8465   -2.0062    1.1023 C   0  0  0  0  0  0  0  0  0  0  0  0
    0.5874    4.4932    1.3959 C   0  0  0  0  0  0  0  0  0  0  0  0
   -3.5826   -0.2288   -0.0446 C   0  0  2  0  0  0  0  0  0  0  0  0
    5.5201   -2.9058   -0.3912 C   0  0  0  0  0  0  0  0  0  0  0  0
   -5.0187   -0.3220   -0.5600 C   0  0  1  0  0  0  0  0  0  0  0  0
    4.3007   -2.8009    2.1609 C   0  0  0  0  0  0  0  0  0  0  0  0
   -5.7878   -1.4445    0.1369 C   0  0  2  0  0  0  0  0  0  0  0  0
   -3.5588   -2.5012    0.6419 C   0  0  1  0  0  0  0  0  0  0  0  0
   -4.9847   -2.7453    0.1420 C   0  0  1  0  0  0  0  0  0  0  0  0
    5.9838   -3.7050    0.6598 C   0  0  0  0  0  0  0  0  0  0  0  0
    5.3820   -3.6518    1.9154 C   0  0  0  0  0  0  0  0  0  0  0  0
   -2.7034   -3.7606    0.5457 C   0  0  0  0  0  0  0  0  0  0  0  0
    2.4658    5.8643    1.0074 C   0  0  0  0  0  0  0  0  0  0  0  0
   -1.1598    2.4839   -1.8026 H   0  0  0  0  0  0  0  0  0  0  0  0
   -0.9706   -0.0191   -2.2889 H   0  0  0  0  0  0  0  0  0  0  0  0
    0.8878    3.1824   -1.0094 H   0  0  0  0  0  0  0  0  0  0  0  0
    2.3326    2.1274    0.6151 H   0  0  0  0  0  0  0  0  0  0  0  0
    1.0139    1.1488    1.2619 H   0  0  0  0  0  0  0  0  0  0  0  0
    0.7315    1.6801   -3.4773 H   0  0  0  0  0  0  0  0  0  0  0  0
    1.1153   -0.0612   -3.4253 H   0  0  0  0  0  0  0  0  0  0  0  0
   -1.4541    0.6878    0.6585 H   0  0  0  0  0  0  0  0  0  0  0  0
    3.4216    1.0355   -3.6157 H   0  0  0  0  0  0  0  0  0  0  0  0
    4.1518    1.3976   -2.0722 H   0  0  0  0  0  0  0  0  0  0  0  0
    3.2553   -1.3675   -3.0237 H   0  0  0  0  0  0  0  0  0  0  0  0
    4.9054   -0.8032   -2.7156 H   0  0  0  0  0  0  0  0  0  0  0  0
    2.2072   -0.8710    1.8377 H   0  0  0  0  0  0  0  0  0  0  0  0
   -2.0085    4.0695    1.7961 H   0  0  0  0  0  0  0  0  0  0  0  0
   -3.5994    0.0961    1.0059 H   0  0  0  0  0  0  0  0  0  0  0  0
    5.9993   -2.9589   -1.3647 H   0  0  0  0  0  0  0  0  0  0  0  0
   -5.0294   -0.4737   -1.6465 H   0  0  0  0  0  0  0  0  0  0  0  0
    3.8329   -2.7616    3.1389 H   0  0  0  0  0  0  0  0  0  0  0  0
   -6.0657   -1.1530    1.1566 H   0  0  0  0  0  0  0  0  0  0  0  0
   -3.5615   -2.1726    1.6902 H   0  0  0  0  0  0  0  0  0  0  0  0
   -4.9613   -3.1710   -0.8693 H   0  0  0  0  0  0  0  0  0  0  0  0
    6.8232   -4.3750    0.4931 H   0  0  0  0  0  0  0  0  0  0  0  0
    5.7582   -4.2818    2.7174 H   0  0  0  0  0  0  0  0  0  0  0  0
   -2.6145   -4.1067   -0.4895 H   0  0  0  0  0  0  0  0  0  0  0  0
   -3.1082   -4.5731    1.1557 H   0  0  0  0  0  0  0  0  0  0  0  0
   -5.1454    1.6181   -0.7461 H   0  0  0  0  0  0  0  0  0  0  0  0
   -6.7977   -1.9330   -1.4730 H   0  0  0  0  0  0  0  0  0  0  0  0
    1.9135    6.7890    1.2002 H   0  0  0  0  0  0  0  0  0  0  0  0
    2.9829    5.5270    1.9108 H   0  0  0  0  0  0  0  0  0  0  0  0
    3.2084    6.0543    0.2280 H   0  0  0  0  0  0  0  0  0  0  0  0
   -6.5342   -3.8095    0.6637 H   0  0  0  0  0  0  0  0  0  0  0  0
   -1.0537   -2.7321    0.4668 H   0  0  0  0  0  0  0  0  0  0  0  0
  1 13  1  0  0  0  0
  1 15  1  0  0  0  0
  2 20  1  0  0  0  0
  2 26  1  0  0  0  0
  3 20  1  0  0  0  0
  3 29  1  0  0  0  0
  4 29  1  0  0  0  0
  4 34  1  0  0  0  0
  5 28  1  0  0  0  0
  5 39  1  0  0  0  0
  6 28  2  0  0  0  0
  7 31  1  0  0  0  0
  7 65  1  0  0  0  0
  8 33  1  0  0  0  0
  8 66  1  0  0  0  0
  9 35  1  0  0  0  0
  9 70  1  0  0  0  0
 10 38  1  0  0  0  0
 10 71  1  0  0  0  0
 11 13  1  0  0  0  0
 11 18  1  0  0  0  0
 11 21  1  0  0  0  0
 12 19  1  0  0  0  0
 12 27  1  0  0  0  0
 12 52  1  0  0  0  0
 13 17  1  0  0  0  0
 13 19  1  0  0  0  0
 14 15  1  0  0  0  0
 14 16  1  0  0  0  0
 14 20  1  0  0  0  0
 14 40  1  0  0  0  0
 15 18  1  0  0  0  0
 15 41  1  0  0  0  0
 16 17  1  0  0  0  0
 16 23  1  0  0  0  0
 16 42  1  0  0  0  0
 17 43  1  0  0  0  0
 17 44  1  0  0  0  0
 18 45  1  0  0  0  0
 18 46  1  0  0  0  0
 19 22  2  0  0  0  0
 20 47  1  0  0  0  0
 21 24  1  0  0  0  0
 21 48  1  0  0  0  0
 21 49  1  0  0  0  0
 22 24  1  0  0  0  0
 22 25  1  0  0  0  0
 23 26  2  0  0  0  0
 23 28  1  0  0  0  0
 24 50  1  0  0  0  0
 24 51  1  0  0  0  0
 25 27  1  0  0  0  0
 25 30  2  0  0  0  0
 26 53  1  0  0  0  0
 27 32  2  0  0  0  0
 29 31  1  0  0  0  0
 29 54  1  0  0  0  0
 30 36  1  0  0  0  0
 30 55  1  0  0  0  0
 31 33  1  0  0  0  0
 31 56  1  0  0  0  0
 32 37  1  0  0  0  0
 32 57  1  0  0  0  0
 33 35  1  0  0  0  0
 33 58  1  0  0  0  0
 34 35  1  0  0  0  0
 34 38  1  0  0  0  0
 34 59  1  0  0  0  0
 35 60  1  0  0  0  0
 36 37  2  0  0  0  0
 36 61  1  0  0  0  0
 37 62  1  0  0  0  0
 38 63  1  0  0  0  0
 38 64  1  0  0  0  0
 39 67  1  0  0  0  0
 39 68  1  0  0  0  0
 39 69  1  0  0  0  0
M  END
> <PUBCHEM_COMPOUND_CID>
21723831

> <PUBCHEM_CONFORMER_RMSD>
1

> <PUBCHEM_CONFORMER_DIVERSEORDER>
1
5
13
16
9
12
15
8
17
2
11
3
7
10
6
4
14

> <PUBCHEM_MMFF94_PARTIAL_CHARGES>
46
1 -0.56
10 -0.68
11 -0.81
12 0.03
13 0.73
15 0.28
16 0.14
18 0.27
19 -0.33
2 -0.36
20 0.56
21 0.27
22 -0.18
23 -0.12
24 0.18
26 -0.07
27 -0.15
28 0.71
29 0.56
3 -0.56
30 -0.15
31 0.28
32 -0.15
33 0.28
34 0.28
35 0.28
36 -0.15
37 -0.15
38 0.28
39 0.28
4 -0.56
5 -0.43
52 0.27
53 0.15
55 0.15
57 0.15
6 -0.57
61 0.15
62 0.15
65 0.4
66 0.4
7 -0.68
70 0.4
71 0.4
8 -0.68
9 -0.68

> <PUBCHEM_EFFECTIVE_ROTOR_COUNT>
7.6

> <PUBCHEM_PHARMACOPHORE_FEATURES>
22
1 1 acceptor
1 10 acceptor
1 10 donor
1 11 cation
1 12 cation
1 12 donor
1 2 acceptor
1 3 acceptor
1 4 acceptor
1 6 acceptor
1 7 acceptor
1 7 donor
1 8 acceptor
1 8 donor
1 9 acceptor
1 9 donor
5 12 19 22 25 27 rings
6 11 13 19 21 22 24 rings
6 2 14 16 20 23 26 rings
6 25 27 30 32 36 37 rings
6 4 29 31 33 34 35 rings
8 1 11 13 14 15 16 17 18 rings

> <PUBCHEM_HEAVY_ATOM_COUNT>
39

> <PUBCHEM_ATOM_DEF_STEREO_COUNT>
10

> <PUBCHEM_ATOM_UDEF_STEREO_COUNT>
0

> <PUBCHEM_BOND_DEF_STEREO_COUNT>
0

> <PUBCHEM_BOND_UDEF_STEREO_COUNT>
0

> <PUBCHEM_ISOTOPIC_ATOM_COUNT>
0

> <PUBCHEM_COMPONENT_COUNT>
1

> <PUBCHEM_CACTVS_TAUTO_COUNT>
1

> <PUBCHEM_CONFORMER_ID>
014B7AB700000001

> <PUBCHEM_MMFF94_ENERGY>
112.0783

> <PUBCHEM_FEATURE_SELFOVERLAP>
111.975

> <PUBCHEM_SHAPE_FINGERPRINT>
10074138 170 17840872867301703721
10622 236 17896033261233516018
11456790 92 18337402561320278043
11552529 35 18047467834196649034
11763715 3 18266192647276004428
12633046 712 18335975441759928141
12788726 201 18339377261647661062
13009979 54 18263367997366193918
131258 38 18117834632121820439
131258 43 18340780260856098702
13383668 1 17762881561929144815
14068700 675 18261107409954670314
14394314 77 18267018362985483369
14705955 166 17201070379544919321
14856354 85 17981885242934060166
14950920 106 18049707535414216866
15163728 17 9223224174026563952
15320294 125 17973172733943286673
15324884 4 16556788439095961452
15684973 49 17688890643880661164
15775530 1 18267843125782889293
15968369 26 17608924632018391891
19315092 285 18188213109359300884
19319366 153 17901681684456517214
20775438 99 17759790842985813131
21033648 29 16415203317590346797
22889206 1 18122901190771977354
22956985 138 18338227271554702520
23559900 14 18411130368717282713
238918 7 16971403716593961736
25222932 49 18054229001319899783
3004659 81 18040434373608281638
32027 91 18337100259678201615
3418910 222 18339919313540687376
3886686 26 16973647244353915030
4394409 98 17901661567099078485
45266715 3 17616793871441761911
463206 1 18334579023127573619
613672 6 18201719505519996183
6376802 137 18337389344951774738
6679774 75 17764293343417755488
6697151 62 18270942610464178757
86090 222 17114124698034655083
9896288 288 17548708374031434464

> <PUBCHEM_SHAPE_MULTIPOLES>
733.95
12.94
7.33
2.09
6.8
7.87
0.74
-20.34
-1.36
-1.48
-5.95
-2.61
0.85
-1.26

> <PUBCHEM_SHAPE_SELFOVERLAP>
1625.508

> <PUBCHEM_SHAPE_VOLUME>
386.1

> <PUBCHEM_COORDINATE_TYPE>
2
5
10

$$$$
