120678
  -OEChem-11202007433D

 81 85  0     1  0  0  0  0  0999 V2000
    7.0147    1.3837   -0.1948 O   0  0  0  0  0  0  0  0  0  0  0  0
   -1.3681    0.8088    2.5399 O   0  0  0  0  0  0  0  0  0  0  0  0
   -0.1354    1.9384    0.9906 O   0  0  0  0  0  0  0  0  0  0  0  0
   -4.2837   -3.1378   -0.0846 O   0  0  0  0  0  0  0  0  0  0  0  0
   -3.0455   -2.2691   -1.7899 O   0  0  0  0  0  0  0  0  0  0  0  0
    0.6747   -0.9399    0.3007 C   0  0  2  0  0  0  0  0  0  0  0  0
    1.4097    0.0133   -0.7179 C   0  0  1  0  0  0  0  0  0  0  0  0
    2.9898   -0.1463   -0.8577 C   0  0  2  0  0  0  0  0  0  0  0  0
   -0.8148   -0.3598    0.5589 C   0  0  1  0  0  0  0  0  0  0  0  0
    3.5896   -0.1111    0.5974 C   0  0  1  0  0  0  0  0  0  0  0  0
    1.4696   -1.0172    1.6341 C   0  0  0  0  0  0  0  0  0  0  0  0
    2.9761   -1.2250    1.4692 C   0  0  0  0  0  0  0  0  0  0  0  0
    5.1538    0.0280    0.7014 C   0  0  0  0  0  0  0  0  0  0  0  0
   -1.5206    0.0534   -0.7379 C   0  0  0  0  0  0  0  0  0  0  0  0
   -3.0390    0.2996   -0.7286 C   0  0  1  0  0  0  0  0  0  0  0  0
    0.6409    0.0600   -2.0572 C   0  0  0  0  0  0  0  0  0  0  0  0
    3.5429    1.0863   -1.6379 C   0  0  0  0  0  0  0  0  0  0  0  0
   -3.7706   -0.8339    0.0358 C   0  0  1  0  0  0  0  0  0  0  0  0
   -1.6754   -1.3492    1.3928 C   0  0  0  0  0  0  0  0  0  0  0  0
    0.5756   -2.3869   -0.2667 C   0  0  0  0  0  0  0  0  0  0  0  0
   -3.1707   -1.0170    1.4422 C   0  0  0  0  0  0  0  0  0  0  0  0
    5.5941    1.2512   -0.1572 C   0  0  2  0  0  0  0  0  0  0  0  0
    3.3917   -1.4124   -1.6537 C   0  0  0  0  0  0  0  0  0  0  0  0
   -0.8433    0.1959   -1.8944 C   0  0  0  0  0  0  0  0  0  0  0  0
    5.0623    1.2333   -1.5866 C   0  0  0  0  0  0  0  0  0  0  0  0
   -3.4353    1.7310   -0.2210 C   0  0  2  0  0  0  0  0  0  0  0  0
   -5.2869   -0.5757    0.1103 C   0  0  0  0  0  0  0  0  0  0  0  0
   -0.7183    0.9285    1.3564 C   0  0  0  0  0  0  0  0  0  0  0  0
   -4.9789    1.9091   -0.2032 C   0  0  1  0  0  0  0  0  0  0  0  0
    5.5560    0.3383    2.1710 C   0  0  0  0  0  0  0  0  0  0  0  0
    5.9211   -1.2526    0.3162 C   0  0  0  0  0  0  0  0  0  0  0  0
   -5.6436    0.8077    0.6296 C   0  0  0  0  0  0  0  0  0  0  0  0
   -3.6419   -2.1346   -0.7317 C   0  0  0  0  0  0  0  0  0  0  0  0
   -2.7706    2.8299   -1.0687 C   0  0  0  0  0  0  0  0  0  0  0  0
   -5.4202    3.2721    0.3433 C   0  0  0  0  0  0  0  0  0  0  0  0
    1.3244    1.0257   -0.3173 H   0  0  0  0  0  0  0  0  0  0  0  0
    3.2160    0.8299    1.0361 H   0  0  0  0  0  0  0  0  0  0  0  0
    1.0730   -1.8196    2.2684 H   0  0  0  0  0  0  0  0  0  0  0  0
    1.3442   -0.0958    2.2135 H   0  0  0  0  0  0  0  0  0  0  0  0
    3.4087   -1.2134    2.4741 H   0  0  0  0  0  0  0  0  0  0  0  0
    3.1805   -2.2210    1.0677 H   0  0  0  0  0  0  0  0  0  0  0  0
   -3.3908    0.2575   -1.7721 H   0  0  0  0  0  0  0  0  0  0  0  0
    0.8189   -0.8315   -2.6640 H   0  0  0  0  0  0  0  0  0  0  0  0
    0.9855    0.9175   -2.6456 H   0  0  0  0  0  0  0  0  0  0  0  0
    3.1039    2.0073   -1.2318 H   0  0  0  0  0  0  0  0  0  0  0  0
    3.2391    1.0383   -2.6907 H   0  0  0  0  0  0  0  0  0  0  0  0
   -1.2920   -1.4810    2.4129 H   0  0  0  0  0  0  0  0  0  0  0  0
   -1.6171   -2.3504    0.9551 H   0  0  0  0  0  0  0  0  0  0  0  0
    1.5298   -2.7742   -0.6143 H   0  0  0  0  0  0  0  0  0  0  0  0
    0.2498   -3.0992    0.4990 H   0  0  0  0  0  0  0  0  0  0  0  0
   -0.1262   -2.4614   -1.1024 H   0  0  0  0  0  0  0  0  0  0  0  0
   -3.6749   -1.8381    1.9694 H   0  0  0  0  0  0  0  0  0  0  0  0
   -3.3708   -0.1362    2.0565 H   0  0  0  0  0  0  0  0  0  0  0  0
    5.2157    2.1627    0.3255 H   0  0  0  0  0  0  0  0  0  0  0  0
    4.3482   -1.2998   -2.1687 H   0  0  0  0  0  0  0  0  0  0  0  0
    3.4933   -2.2996   -1.0272 H   0  0  0  0  0  0  0  0  0  0  0  0
    2.6825   -1.6504   -2.4486 H   0  0  0  0  0  0  0  0  0  0  0  0
   -1.3845    0.4624   -2.7996 H   0  0  0  0  0  0  0  0  0  0  0  0
    5.5620    0.4506   -2.1673 H   0  0  0  0  0  0  0  0  0  0  0  0
    5.3456    2.1683   -2.0877 H   0  0  0  0  0  0  0  0  0  0  0  0
   -3.0854    1.8629    0.8079 H   0  0  0  0  0  0  0  0  0  0  0  0
   -5.7812   -1.3178    0.7508 H   0  0  0  0  0  0  0  0  0  0  0  0
   -5.7336   -0.6960   -0.8870 H   0  0  0  0  0  0  0  0  0  0  0  0
   -5.3515    1.8303   -1.2338 H   0  0  0  0  0  0  0  0  0  0  0  0
    6.6176    0.6005    2.2485 H   0  0  0  0  0  0  0  0  0  0  0  0
    4.9809    1.1808    2.5710 H   0  0  0  0  0  0  0  0  0  0  0  0
    5.3990   -0.5214    2.8299 H   0  0  0  0  0  0  0  0  0  0  0  0
    6.9809   -1.1708    0.5871 H   0  0  0  0  0  0  0  0  0  0  0  0
    5.5292   -2.1314    0.8378 H   0  0  0  0  0  0  0  0  0  0  0  0
    5.9000   -1.4549   -0.7545 H   0  0  0  0  0  0  0  0  0  0  0  0
   -6.7341    0.9235    0.5939 H   0  0  0  0  0  0  0  0  0  0  0  0
   -5.3586    0.9034    1.6840 H   0  0  0  0  0  0  0  0  0  0  0  0
   -2.9825    3.8262   -0.6701 H   0  0  0  0  0  0  0  0  0  0  0  0
   -1.6816    2.7407   -1.0792 H   0  0  0  0  0  0  0  0  0  0  0  0
   -3.1246    2.7948   -2.1045 H   0  0  0  0  0  0  0  0  0  0  0  0
    7.2230    2.1897   -0.6972 H   0  0  0  0  0  0  0  0  0  0  0  0
   -4.9807    3.4662    1.3274 H   0  0  0  0  0  0  0  0  0  0  0  0
   -5.1339    4.0861   -0.3290 H   0  0  0  0  0  0  0  0  0  0  0  0
   -6.5101    3.3166    0.4458 H   0  0  0  0  0  0  0  0  0  0  0  0
   -1.3185    1.6326    3.0697 H   0  0  0  0  0  0  0  0  0  0  0  0
   -4.2117   -3.9893   -0.5663 H   0  0  0  0  0  0  0  0  0  0  0  0
  1 22  1  0  0  0  0
  1 76  1  0  0  0  0
  2 28  1  0  0  0  0
  2 80  1  0  0  0  0
  3 28  2  0  0  0  0
  4 33  1  0  0  0  0
  4 81  1  0  0  0  0
  5 33  2  0  0  0  0
  6  7  1  0  0  0  0
  6  9  1  0  0  0  0
  6 11  1  0  0  0  0
  6 20  1  0  0  0  0
  7  8  1  0  0  0  0
  7 16  1  0  0  0  0
  7 36  1  0  0  0  0
  8 10  1  0  0  0  0
  8 17  1  0  0  0  0
  8 23  1  0  0  0  0
  9 14  1  0  0  0  0
  9 19  1  0  0  0  0
  9 28  1  0  0  0  0
 10 12  1  0  0  0  0
 10 13  1  0  0  0  0
 10 37  1  0  0  0  0
 11 12  1  0  0  0  0
 11 38  1  0  0  0  0
 11 39  1  0  0  0  0
 12 40  1  0  0  0  0
 12 41  1  0  0  0  0
 13 22  1  0  0  0  0
 13 30  1  0  0  0  0
 13 31  1  0  0  0  0
 14 15  1  0  0  0  0
 14 24  2  0  0  0  0
 15 18  1  0  0  0  0
 15 26  1  0  0  0  0
 15 42  1  0  0  0  0
 16 24  1  0  0  0  0
 16 43  1  0  0  0  0
 16 44  1  0  0  0  0
 17 25  1  0  0  0  0
 17 45  1  0  0  0  0
 17 46  1  0  0  0  0
 18 21  1  0  0  0  0
 18 27  1  0  0  0  0
 18 33  1  0  0  0  0
 19 21  1  0  0  0  0
 19 47  1  0  0  0  0
 19 48  1  0  0  0  0
 20 49  1  0  0  0  0
 20 50  1  0  0  0  0
 20 51  1  0  0  0  0
 21 52  1  0  0  0  0
 21 53  1  0  0  0  0
 22 25  1  0  0  0  0
 22 54  1  0  0  0  0
 23 55  1  0  0  0  0
 23 56  1  0  0  0  0
 23 57  1  0  0  0  0
 24 58  1  0  0  0  0
 25 59  1  0  0  0  0
 25 60  1  0  0  0  0
 26 29  1  0  0  0  0
 26 34  1  0  0  0  0
 26 61  1  0  0  0  0
 27 32  1  0  0  0  0
 27 62  1  0  0  0  0
 27 63  1  0  0  0  0
 29 32  1  0  0  0  0
 29 35  1  0  0  0  0
 29 64  1  0  0  0  0
 30 65  1  0  0  0  0
 30 66  1  0  0  0  0
 30 67  1  0  0  0  0
 31 68  1  0  0  0  0
 31 69  1  0  0  0  0
 31 70  1  0  0  0  0
 32 71  1  0  0  0  0
 32 72  1  0  0  0  0
 34 73  1  0  0  0  0
 34 74  1  0  0  0  0
 34 75  1  0  0  0  0
 35 77  1  0  0  0  0
 35 78  1  0  0  0  0
 35 79  1  0  0  0  0
M  END
> <PUBCHEM_COMPOUND_CID>
120678

> <PUBCHEM_CONFORMER_RMSD>
0.8

> <PUBCHEM_CONFORMER_DIVERSEORDER>
1

> <PUBCHEM_MMFF94_PARTIAL_CHARGES>
18
1 -0.68
14 -0.28
15 0.14
16 0.14
18 0.06
2 -0.65
22 0.28
24 -0.29
28 0.66
3 -0.57
33 0.66
4 -0.65
5 -0.57
58 0.15
76 0.4
80 0.5
81 0.5
9 0.2

> <PUBCHEM_EFFECTIVE_ROTOR_COUNT>
4.6

> <PUBCHEM_PHARMACOPHORE_FEATURES>
14
1 1 acceptor
1 1 donor
1 2 acceptor
1 3 acceptor
1 4 acceptor
1 5 acceptor
3 13 30 31 hydrophobe
3 2 3 28 anion
3 4 5 33 anion
6 15 18 26 27 29 32 rings
6 6 7 8 10 11 12 rings
6 6 7 9 14 16 24 rings
6 8 10 13 17 22 25 rings
6 9 14 15 18 19 21 rings

> <PUBCHEM_HEAVY_ATOM_COUNT>
35

> <PUBCHEM_ATOM_DEF_STEREO_COUNT>
10

> <PUBCHEM_ATOM_UDEF_STEREO_COUNT>
0

> <PUBCHEM_BOND_DEF_STEREO_COUNT>
0

> <PUBCHEM_BOND_UDEF_STEREO_COUNT>
0

> <PUBCHEM_ISOTOPIC_ATOM_COUNT>
0

> <PUBCHEM_COMPONENT_COUNT>
1

> <PUBCHEM_CACTVS_TAUTO_COUNT>
1

> <PUBCHEM_CONFORMER_ID>
0001D76600000001

> <PUBCHEM_MMFF94_ENERGY>
144.8479

> <PUBCHEM_FEATURE_SELFOVERLAP>
71.246

> <PUBCHEM_SHAPE_FINGERPRINT>
10290309 65 17917158221214250503
10675989 125 17624142594728261777
10906281 52 16733283282525868242
11578080 2 18200884959003958655
12166972 35 18260547832051651792
12236239 1 18333730217309265146
12422481 6 17313660438996019860
12616971 3 17822009809023659894
12633257 1 15140970573292921908
12788726 201 18341052900030936441
12969540 114 16773507798562528765
13140716 1 16371872792167851724
13224815 77 17418377986776624042
13583140 156 17775277270466386759
13690498 29 18057879328917498695
13811026 1 18343015580701258080
13911987 19 16702301231004369069
14068700 675 18121497119145789751
14341114 328 18260547818539028612
14840074 17 16660369177372268078
14849402 71 17968099785152121932
14856354 85 18339361971917846647
14955137 171 8214137452097691434
15131766 46 14781840444814015807
15183329 4 17168141252244921674
15788980 27 18334013899851803554
15840311 113 17970633979022969765
17349148 13 16515400768273043494
17980427 23 17967818262038415445
19319366 153 17968935272064627443
19377110 9 17967530181433729505
20511986 3 18186790370834293465
21033648 144 16298672805854587126
21033648 29 17417798539621704088
21033650 10 18191609491612475204
21424621 283 17914906335975946697
23559900 14 18198628731042620254
23569914 152 15117625480013692013
23569914 2 17624926717806960072
23569943 247 16517073022606705770
24771293 8 17895193364111271188
32027 91 17843133502142925910
34797466 226 17988372558425997716
3633792 109 17386271135492691903
392239 28 16298390149540414665
404807 14 17252580184525392314
5104073 3 17240489134453610144
9849439 229 17693946185877849641

> <PUBCHEM_SHAPE_MULTIPOLES>
690.94
14.1
2.63
1.93
9.08
0.33
0.12
4.75
1.49
-3.41
-0.33
1
-0.11
-1.1

> <PUBCHEM_SHAPE_SELFOVERLAP>
1481.706

> <PUBCHEM_SHAPE_VOLUME>
374.4

> <PUBCHEM_COORDINATE_TYPE>
2
5
10

$$$$
