14521040
  -OEChem-09282022343D

 75 78  0     1  0  0  0  0  0999 V2000
   -2.1582    1.0122    0.4868 O   0  0  0  0  0  0  0  0  0  0  0  0
   -0.1437    4.4038    2.7227 O   0  0  0  0  0  0  0  0  0  0  0  0
   -3.7910   -0.5974    0.0449 O   0  0  0  0  0  0  0  0  0  0  0  0
    2.0739   -0.7158   -2.0705 O   0  0  0  0  0  0  0  0  0  0  0  0
   -4.1178    3.0527    0.1169 O   0  0  0  0  0  0  0  0  0  0  0  0
    5.4814    2.5700   -1.5630 O   0  0  0  0  0  0  0  0  0  0  0  0
    4.4222    0.3919   -2.8982 O   0  0  0  0  0  0  0  0  0  0  0  0
   -6.2305    2.2305   -1.6715 O   0  0  0  0  0  0  0  0  0  0  0  0
   -7.3238   -0.3779   -0.8377 O   0  0  0  0  0  0  0  0  0  0  0  0
    2.5265   -3.7522    2.4117 O   0  0  0  0  0  0  0  0  0  0  0  0
   -0.5858   -4.3564   -1.1783 O   0  0  0  0  0  0  0  0  0  0  0  0
    1.0893   -5.4349    0.7464 O   0  0  0  0  0  0  0  0  0  0  0  0
   -0.0120    0.8163    1.5180 C   0  0  2  0  0  0  0  0  0  0  0  0
    0.2268    2.3446    1.5695 C   0  0  2  0  0  0  0  0  0  0  0  0
    0.6048    0.2020    0.2171 C   0  0  1  0  0  0  0  0  0  0  0  0
    1.7379    2.6159    1.5706 C   0  0  0  0  0  0  0  0  0  0  0  0
    1.9098    0.8504   -0.2420 C   0  0  0  0  0  0  0  0  0  0  0  0
   -1.5068    0.4686    1.6157 C   0  0  0  0  0  0  0  0  0  0  0  0
    2.4326    1.9881    0.3947 C   0  0  0  0  0  0  0  0  0  0  0  0
   -0.4013    3.0155    2.7952 C   0  0  0  0  0  0  0  0  0  0  0  0
    0.7347   -1.3149    0.3596 C   0  0  0  0  0  0  0  0  0  0  0  0
    2.5862    0.3392   -1.3669 C   0  0  0  0  0  0  0  0  0  0  0  0
    3.6439    2.5429   -0.0510 C   0  0  0  0  0  0  0  0  0  0  0  0
   -3.5580    0.7354    0.4961 C   0  0  2  0  0  0  0  0  0  0  0  0
   -4.2410    1.7410   -0.4324 C   0  0  1  0  0  0  0  0  0  0  0  0
    0.0094   -2.1592   -0.4808 C   0  0  0  0  0  0  0  0  0  0  0  0
    1.5793   -1.8544    1.3299 C   0  0  0  0  0  0  0  0  0  0  0  0
    3.7800    0.9079   -1.8116 C   0  0  0  0  0  0  0  0  0  0  0  0
    4.3138    2.0053   -1.1477 C   0  0  0  0  0  0  0  0  0  0  0  0
   -5.7275    1.4280   -0.6025 C   0  0  2  0  0  0  0  0  0  0  0  0
   -5.9422   -0.0493   -0.9291 C   0  0  1  0  0  0  0  0  0  0  0  0
   -5.1746   -0.9310    0.0459 C   0  0  0  0  0  0  0  0  0  0  0  0
    1.6982   -3.2381    1.4599 C   0  0  0  0  0  0  0  0  0  0  0  0
    0.1283   -3.5429   -0.3509 C   0  0  0  0  0  0  0  0  0  0  0  0
    0.9726   -4.0823    0.6195 C   0  0  0  0  0  0  0  0  0  0  0  0
    1.1987   -0.4045   -3.1494 C   0  0  0  0  0  0  0  0  0  0  0  0
    5.9575    3.6932   -0.8239 C   0  0  0  0  0  0  0  0  0  0  0  0
    3.2316   -2.8201    3.2290 C   0  0  0  0  0  0  0  0  0  0  0  0
   -1.4252   -3.7241   -2.1426 C   0  0  0  0  0  0  0  0  0  0  0  0
    0.4737    0.3864    2.4046 H   0  0  0  0  0  0  0  0  0  0  0  0
   -0.1996    2.8112    0.6695 H   0  0  0  0  0  0  0  0  0  0  0  0
   -0.0970    0.4171   -0.5992 H   0  0  0  0  0  0  0  0  0  0  0  0
    2.1970    2.2288    2.4894 H   0  0  0  0  0  0  0  0  0  0  0  0
    1.9152    3.6982    1.5463 H   0  0  0  0  0  0  0  0  0  0  0  0
   -1.6400   -0.6194    1.6297 H   0  0  0  0  0  0  0  0  0  0  0  0
   -1.9459    0.8500    2.5428 H   0  0  0  0  0  0  0  0  0  0  0  0
   -1.4870    2.8945    2.8126 H   0  0  0  0  0  0  0  0  0  0  0  0
    0.0169    2.6213    3.7272 H   0  0  0  0  0  0  0  0  0  0  0  0
    4.0079    3.4042    0.5003 H   0  0  0  0  0  0  0  0  0  0  0  0
   -3.9431    0.8552    1.5185 H   0  0  0  0  0  0  0  0  0  0  0  0
   -3.7385    1.7599   -1.4070 H   0  0  0  0  0  0  0  0  0  0  0  0
   -0.6433   -1.6873   -1.2067 H   0  0  0  0  0  0  0  0  0  0  0  0
    2.1294   -1.1549    1.9495 H   0  0  0  0  0  0  0  0  0  0  0  0
   -6.2974    1.7137    0.2894 H   0  0  0  0  0  0  0  0  0  0  0  0
   -5.6174   -0.2486   -1.9577 H   0  0  0  0  0  0  0  0  0  0  0  0
   -0.5422    4.8122    3.5100 H   0  0  0  0  0  0  0  0  0  0  0  0
   -5.2697   -1.9829   -0.2455 H   0  0  0  0  0  0  0  0  0  0  0  0
   -5.5784   -0.8571    1.0637 H   0  0  0  0  0  0  0  0  0  0  0  0
   -4.5306    3.0505    0.9974 H   0  0  0  0  0  0  0  0  0  0  0  0
    5.2269    0.9153   -3.0571 H   0  0  0  0  0  0  0  0  0  0  0  0
   -5.7567    1.9839   -2.4840 H   0  0  0  0  0  0  0  0  0  0  0  0
    0.3595    0.2162   -2.8226 H   0  0  0  0  0  0  0  0  0  0  0  0
    1.7461    0.1095   -3.9459 H   0  0  0  0  0  0  0  0  0  0  0  0
    0.8054   -1.3407   -3.5542 H   0  0  0  0  0  0  0  0  0  0  0  0
   -7.4184   -1.3182   -1.0669 H   0  0  0  0  0  0  0  0  0  0  0  0
    5.2695    4.5427   -0.8923 H   0  0  0  0  0  0  0  0  0  0  0  0
    6.1905    3.4259    0.2125 H   0  0  0  0  0  0  0  0  0  0  0  0
    6.8975    4.0088   -1.2886 H   0  0  0  0  0  0  0  0  0  0  0  0
    0.5155   -5.8560    0.0829 H   0  0  0  0  0  0  0  0  0  0  0  0
    3.8389   -3.4020    3.9302 H   0  0  0  0  0  0  0  0  0  0  0  0
    2.5478   -2.2120    3.8312 H   0  0  0  0  0  0  0  0  0  0  0  0
    3.9253   -2.2103    2.6399 H   0  0  0  0  0  0  0  0  0  0  0  0
   -1.9168   -4.5200   -2.7118 H   0  0  0  0  0  0  0  0  0  0  0  0
   -0.8446   -3.1347   -2.8597 H   0  0  0  0  0  0  0  0  0  0  0  0
   -2.2195   -3.1393   -1.6659 H   0  0  0  0  0  0  0  0  0  0  0  0
  1 18  1  0  0  0  0
  1 24  1  0  0  0  0
  2 20  1  0  0  0  0
  2 56  1  0  0  0  0
  3 24  1  0  0  0  0
  3 32  1  0  0  0  0
  4 22  1  0  0  0  0
  4 36  1  0  0  0  0
  5 25  1  0  0  0  0
  5 59  1  0  0  0  0
  6 29  1  0  0  0  0
  6 37  1  0  0  0  0
  7 28  1  0  0  0  0
  7 60  1  0  0  0  0
  8 30  1  0  0  0  0
  8 61  1  0  0  0  0
  9 31  1  0  0  0  0
  9 65  1  0  0  0  0
 10 33  1  0  0  0  0
 10 38  1  0  0  0  0
 11 34  1  0  0  0  0
 11 39  1  0  0  0  0
 12 35  1  0  0  0  0
 12 69  1  0  0  0  0
 13 14  1  0  0  0  0
 13 15  1  0  0  0  0
 13 18  1  0  0  0  0
 13 40  1  0  0  0  0
 14 16  1  0  0  0  0
 14 20  1  0  0  0  0
 14 41  1  0  0  0  0
 15 17  1  0  0  0  0
 15 21  1  0  0  0  0
 15 42  1  0  0  0  0
 16 19  1  0  0  0  0
 16 43  1  0  0  0  0
 16 44  1  0  0  0  0
 17 19  1  0  0  0  0
 17 22  2  0  0  0  0
 18 45  1  0  0  0  0
 18 46  1  0  0  0  0
 19 23  2  0  0  0  0
 20 47  1  0  0  0  0
 20 48  1  0  0  0  0
 21 26  2  0  0  0  0
 21 27  1  0  0  0  0
 22 28  1  0  0  0  0
 23 29  1  0  0  0  0
 23 49  1  0  0  0  0
 24 25  1  0  0  0  0
 24 50  1  0  0  0  0
 25 30  1  0  0  0  0
 25 51  1  0  0  0  0
 26 34  1  0  0  0  0
 26 52  1  0  0  0  0
 27 33  2  0  0  0  0
 27 53  1  0  0  0  0
 28 29  2  0  0  0  0
 30 31  1  0  0  0  0
 30 54  1  0  0  0  0
 31 32  1  0  0  0  0
 31 55  1  0  0  0  0
 32 57  1  0  0  0  0
 32 58  1  0  0  0  0
 33 35  1  0  0  0  0
 34 35  2  0  0  0  0
 36 62  1  0  0  0  0
 36 63  1  0  0  0  0
 36 64  1  0  0  0  0
 37 66  1  0  0  0  0
 37 67  1  0  0  0  0
 37 68  1  0  0  0  0
 38 70  1  0  0  0  0
 38 71  1  0  0  0  0
 38 72  1  0  0  0  0
 39 73  1  0  0  0  0
 39 74  1  0  0  0  0
 39 75  1  0  0  0  0
M  END
> <PUBCHEM_COMPOUND_CID>
14521040

> <PUBCHEM_CONFORMER_RMSD>
1.2

> <PUBCHEM_CONFORMER_DIVERSEORDER>
1
7
8
4
14
13
15
17
3
9
16
2
11
10
6
12
5

> <PUBCHEM_MMFF94_PARTIAL_CHARGES>
46
1 -0.56
10 -0.36
11 -0.36
12 -0.53
15 0.29
16 0.14
17 -0.14
18 0.28
19 -0.14
2 -0.68
20 0.28
21 -0.14
22 0.08
23 -0.15
24 0.56
25 0.28
26 -0.15
27 -0.15
28 0.08
29 0.08
3 -0.56
30 0.28
31 0.28
32 0.28
33 0.08
34 0.08
35 0.08
36 0.28
37 0.28
38 0.28
39 0.28
4 -0.36
49 0.15
5 -0.68
52 0.15
53 0.15
56 0.4
59 0.4
6 -0.36
60 0.45
61 0.4
65 0.4
69 0.45
7 -0.53
8 -0.68
9 -0.68

> <PUBCHEM_EFFECTIVE_ROTOR_COUNT>
11

> <PUBCHEM_PHARMACOPHORE_FEATURES>
20
1 1 acceptor
1 10 acceptor
1 11 acceptor
1 12 donor
1 2 acceptor
1 2 donor
1 3 acceptor
1 4 acceptor
1 5 acceptor
1 5 donor
1 6 acceptor
1 7 donor
1 8 acceptor
1 8 donor
1 9 acceptor
1 9 donor
6 13 14 15 16 17 19 rings
6 17 19 22 23 28 29 rings
6 21 26 27 33 34 35 rings
6 3 24 25 30 31 32 rings

> <PUBCHEM_HEAVY_ATOM_COUNT>
39

> <PUBCHEM_ATOM_DEF_STEREO_COUNT>
7

> <PUBCHEM_ATOM_UDEF_STEREO_COUNT>
0

> <PUBCHEM_BOND_DEF_STEREO_COUNT>
0

> <PUBCHEM_BOND_UDEF_STEREO_COUNT>
0

> <PUBCHEM_ISOTOPIC_ATOM_COUNT>
0

> <PUBCHEM_COMPONENT_COUNT>
1

> <PUBCHEM_CACTVS_TAUTO_COUNT>
18

> <PUBCHEM_CONFORMER_ID>
00DD92D000000001

> <PUBCHEM_MMFF94_ENERGY>
154.0943

> <PUBCHEM_FEATURE_SELFOVERLAP>
101.587

> <PUBCHEM_SHAPE_FINGERPRINT>
10305334 12 17696995444968831832
10675989 125 18340497681545849644
10721379 63 18116721698672770858
10940486 97 16975634078823278575
11297750 10 17332818643558503712
11578080 2 15940963035433334234
11966995 16 18124001734231590727
12156800 1 17844227735355724914
12160290 23 17398161399958342178
12293681 160 18272380809985305952
12608794 3 17387382784603224570
12977781 61 16805906025150064912
133893 2 17462878405086833864
140371 6 17837207070133574971
14068700 675 17978498750698351802
14400156 266 17978510837268565372
144659 178 17621597220745707897
15219462 58 17617363422832854376
15775530 1 17262442210904505601
15975801 100 18337098064538483429
18681886 176 18270114600609278066
19319366 153 18409727378605442455
21304303 282 18118683459904561710
22393880 68 18271804657676598949
23559900 14 18124015855450321715
25223398 141 17825957202107643315
3380486 145 17338479930388189314
404807 78 17825394239792105395
44802255 64 17317649601122397110
474144 1 18339072684226799611
6669772 16 18272650203487518010

> <PUBCHEM_SHAPE_MULTIPOLES>
732.17
11.44
6.35
2.86
16.1
6.18
0.3
-10.9
-7.23
-3.58
2.74
-2.68
0.24
-2.64

> <PUBCHEM_SHAPE_SELFOVERLAP>
1564.046

> <PUBCHEM_SHAPE_VOLUME>
402.5

> <PUBCHEM_COORDINATE_TYPE>
2
5
10

$$$$
