121232948
  -OEChem-09282022293D

 55 59  0     1  0  0  0  0  0999 V2000
   -2.7711    1.6105   -0.6558 O   0  0  0  0  0  0  0  0  0  0  0  0
   -1.4257   -2.0864    2.0915 O   0  0  0  0  0  0  0  0  0  0  0  0
   -0.8973    3.4300   -1.8276 O   0  0  0  0  0  0  0  0  0  0  0  0
    3.0988   -0.5375   -0.5166 O   0  0  0  0  0  0  0  0  0  0  0  0
   -7.8028   -1.0041    1.2394 O   0  0  0  0  0  0  0  0  0  0  0  0
   -8.2204   -1.4538   -1.4714 O   0  0  0  0  0  0  0  0  0  0  0  0
    3.1037    2.7578    1.1356 O   0  0  0  0  0  0  0  0  0  0  0  0
    5.7594    1.9506    1.3093 O   0  0  0  0  0  0  0  0  0  0  0  0
    7.6774    0.2277    0.8751 O   0  0  0  0  0  0  0  0  0  0  0  0
    6.4635   -3.7739   -1.3738 O   0  0  0  0  0  0  0  0  0  0  0  0
   -2.2190   -0.4101    0.5852 C   0  0  1  0  0  0  0  0  0  0  0  0
   -3.2918    0.6756    0.3310 C   0  0  2  0  0  0  0  0  0  0  0  0
   -1.0143    0.3627    0.1776 C   0  0  0  0  0  0  0  0  0  0  0  0
   -1.4094    1.4784   -0.5478 C   0  0  0  0  0  0  0  0  0  0  0  0
   -2.2129   -0.9098    2.0223 C   0  0  0  0  0  0  0  0  0  0  0  0
   -4.6079    0.1064   -0.1468 C   0  0  0  0  0  0  0  0  0  0  0  0
    0.3290    0.0838    0.3620 C   0  0  0  0  0  0  0  0  0  0  0  0
   -0.4971    2.3480   -1.1141 C   0  0  0  0  0  0  0  0  0  0  0  0
    1.2701    0.9575   -0.1898 C   0  0  0  0  0  0  0  0  0  0  0  0
    0.8595    2.0816   -0.9245 C   0  0  0  0  0  0  0  0  0  0  0  0
   -5.6131   -0.1934    0.7727 C   0  0  0  0  0  0  0  0  0  0  0  0
   -4.8177   -0.1184   -1.5074 C   0  0  0  0  0  0  0  0  0  0  0  0
    2.7082    0.6912   -0.0078 C   0  0  0  0  0  0  0  0  0  0  0  0
   -6.8281   -0.7178    0.3317 C   0  0  0  0  0  0  0  0  0  0  0  0
   -6.0327   -0.6429   -1.9483 C   0  0  0  0  0  0  0  0  0  0  0  0
   -7.0379   -0.9426   -1.0288 C   0  0  0  0  0  0  0  0  0  0  0  0
    3.5310    1.5571    0.6114 C   0  0  0  0  0  0  0  0  0  0  0  0
    4.4157   -0.9022   -0.4064 C   0  0  0  0  0  0  0  0  0  0  0  0
    5.3744   -0.0967    0.2039 C   0  0  0  0  0  0  0  0  0  0  0  0
    4.9634    1.2028    0.7572 C   0  0  0  0  0  0  0  0  0  0  0  0
    6.7027   -0.5212    0.2882 C   0  0  0  0  0  0  0  0  0  0  0  0
    4.7800   -2.1397   -0.9377 C   0  0  0  0  0  0  0  0  0  0  0  0
    6.1054   -2.5671   -0.8559 C   0  0  0  0  0  0  0  0  0  0  0  0
    7.0646   -1.7593   -0.2440 C   0  0  0  0  0  0  0  0  0  0  0  0
   -7.5075   -0.7447    2.6105 C   0  0  0  0  0  0  0  0  0  0  0  0
   -2.3271   -1.2507   -0.1136 H   0  0  0  0  0  0  0  0  0  0  0  0
   -3.4673    1.2748    1.2371 H   0  0  0  0  0  0  0  0  0  0  0  0
   -3.2228   -1.1756    2.3482 H   0  0  0  0  0  0  0  0  0  0  0  0
   -1.8036   -0.1673    2.7158 H   0  0  0  0  0  0  0  0  0  0  0  0
    0.6402   -0.7968    0.9150 H   0  0  0  0  0  0  0  0  0  0  0  0
    1.6004    2.7483   -1.3621 H   0  0  0  0  0  0  0  0  0  0  0  0
   -5.3946    0.0048    1.8164 H   0  0  0  0  0  0  0  0  0  0  0  0
   -4.0456    0.0969   -2.2410 H   0  0  0  0  0  0  0  0  0  0  0  0
   -1.4393   -2.3866    3.0163 H   0  0  0  0  0  0  0  0  0  0  0  0
   -6.1820   -0.8154   -3.0108 H   0  0  0  0  0  0  0  0  0  0  0  0
   -0.1111    3.9116   -2.1375 H   0  0  0  0  0  0  0  0  0  0  0  0
    4.0343   -2.7709   -1.4145 H   0  0  0  0  0  0  0  0  0  0  0  0
   -8.1851   -1.5410   -2.4395 H   0  0  0  0  0  0  0  0  0  0  0  0
    3.8768    3.1947    1.5328 H   0  0  0  0  0  0  0  0  0  0  0  0
    8.0983   -2.0910   -0.1791 H   0  0  0  0  0  0  0  0  0  0  0  0
   -8.3912   -1.0322    3.1899 H   0  0  0  0  0  0  0  0  0  0  0  0
   -7.3422    0.3226    2.7931 H   0  0  0  0  0  0  0  0  0  0  0  0
   -6.6781   -1.3637    2.9694 H   0  0  0  0  0  0  0  0  0  0  0  0
    7.3131    1.0637    1.2039 H   0  0  0  0  0  0  0  0  0  0  0  0
    7.4159   -3.9090   -1.2299 H   0  0  0  0  0  0  0  0  0  0  0  0
  1 12  1  0  0  0  0
  1 14  1  0  0  0  0
  2 15  1  0  0  0  0
  2 44  1  0  0  0  0
  3 18  1  0  0  0  0
  3 46  1  0  0  0  0
  4 23  1  0  0  0  0
  4 28  1  0  0  0  0
  5 24  1  0  0  0  0
  5 35  1  0  0  0  0
  6 26  1  0  0  0  0
  6 48  1  0  0  0  0
  7 27  1  0  0  0  0
  7 49  1  0  0  0  0
  8 30  2  0  0  0  0
  9 31  1  0  0  0  0
  9 54  1  0  0  0  0
 10 33  1  0  0  0  0
 10 55  1  0  0  0  0
 11 12  1  0  0  0  0
 11 13  1  0  0  0  0
 11 15  1  0  0  0  0
 11 36  1  0  0  0  0
 12 16  1  0  0  0  0
 12 37  1  0  0  0  0
 13 14  2  0  0  0  0
 13 17  1  0  0  0  0
 14 18  1  0  0  0  0
 15 38  1  0  0  0  0
 15 39  1  0  0  0  0
 16 21  2  0  0  0  0
 16 22  1  0  0  0  0
 17 19  2  0  0  0  0
 17 40  1  0  0  0  0
 18 20  2  0  0  0  0
 19 20  1  0  0  0  0
 19 23  1  0  0  0  0
 20 41  1  0  0  0  0
 21 24  1  0  0  0  0
 21 42  1  0  0  0  0
 22 25  2  0  0  0  0
 22 43  1  0  0  0  0
 23 27  2  0  0  0  0
 24 26  2  0  0  0  0
 25 26  1  0  0  0  0
 25 45  1  0  0  0  0
 27 30  1  0  0  0  0
 28 29  1  0  0  0  0
 28 32  2  0  0  0  0
 29 30  1  0  0  0  0
 29 31  2  0  0  0  0
 31 34  1  0  0  0  0
 32 33  1  0  0  0  0
 32 47  1  0  0  0  0
 33 34  2  0  0  0  0
 34 50  1  0  0  0  0
 35 51  1  0  0  0  0
 35 52  1  0  0  0  0
 35 53  1  0  0  0  0
M  END
> <PUBCHEM_COMPOUND_CID>
121232948

> <PUBCHEM_CONFORMER_RMSD>
0.8

> <PUBCHEM_CONFORMER_DIVERSEORDER>
3
7
14
12
19
8
15
5
20
16
22
6
9
13
10
21
2
23
18
11
1
17
4

> <PUBCHEM_MMFF94_PARTIAL_CHARGES>
48
1 -0.36
10 -0.53
11 0.14
12 0.42
13 -0.14
14 0.08
15 0.28
16 -0.14
17 -0.15
18 0.08
19 0.03
2 -0.68
20 -0.15
21 -0.15
22 -0.15
23 0.05
24 0.08
25 -0.15
26 0.08
27 0.09
28 0.08
29 0.09
3 -0.53
30 0.47
31 0.08
32 -0.15
33 0.08
34 -0.15
35 0.28
4 -0.16
40 0.15
41 0.15
42 0.15
43 0.15
44 0.4
45 0.15
46 0.45
47 0.15
48 0.45
49 0.45
5 -0.36
50 0.15
54 0.45
55 0.45
6 -0.53
7 -0.53
8 -0.57
9 -0.53

> <PUBCHEM_EFFECTIVE_ROTOR_COUNT>
4.6

> <PUBCHEM_PHARMACOPHORE_FEATURES>
16
1 1 acceptor
1 10 donor
1 2 acceptor
1 2 donor
1 3 donor
1 4 acceptor
1 5 acceptor
1 6 donor
1 7 donor
1 8 acceptor
1 9 donor
5 1 11 12 13 14 rings
6 13 14 17 18 19 20 rings
6 16 21 22 24 25 26 rings
6 28 29 31 32 33 34 rings
6 4 23 27 28 29 30 rings

> <PUBCHEM_HEAVY_ATOM_COUNT>
35

> <PUBCHEM_ATOM_DEF_STEREO_COUNT>
2

> <PUBCHEM_ATOM_UDEF_STEREO_COUNT>
0

> <PUBCHEM_BOND_DEF_STEREO_COUNT>
0

> <PUBCHEM_BOND_UDEF_STEREO_COUNT>
0

> <PUBCHEM_ISOTOPIC_ATOM_COUNT>
0

> <PUBCHEM_COMPONENT_COUNT>
1

> <PUBCHEM_CACTVS_TAUTO_COUNT>
216

> <PUBCHEM_CONFORMER_ID>
0739DE3400000003

> <PUBCHEM_MMFF94_ENERGY>
117.3977

> <PUBCHEM_FEATURE_SELFOVERLAP>
81.332

> <PUBCHEM_SHAPE_FINGERPRINT>
10299344 5 17489868258716337727
11331351 85 18412262844293662637
11828532 37 17822302330914946626
12166972 35 17775564243470559704
13402501 40 18336267860419102018
13533116 47 18201719574213222136
13540713 4 17170123787880082545
13617811 41 17240201019530942404
13673619 4 18412265008777324692
13685833 64 18411139134133402762
13782708 43 18339075987188071006
13811026 1 18333728013742894981
14202776 33 13840253794071190303
14294032 229 13830127282888389193
14856354 85 14707212150088878435
15183329 4 14851602167988105295
15198563 99 17749944462871152405
15361156 5 18261117417512962556
15510800 12 18260838093819365314
15927050 60 17757547456843683765
19301679 30 16844740712067312468
21130935 74 18131069329035835883
21150785 3 13984664763332089819
21267235 1 18041002851579946377
21307412 95 18186811261650712491
21781051 124 16950579808483560019
21792938 703 18267017444490872171
22149856 69 18131356263717742408
23522609 53 17416705715954905865
23559900 14 18040721402499711492
23569943 247 18341050692945467971
23576562 1 16081660005763836271
3004659 81 17022623095784996644
3383291 50 18040721389620202147
3504750 166 18059856139376317805
3663271 9 17346599694604230595
4046055 4 18187647959740059628
437815 12 18334577940632108933
4403749 210 11671769478354621069
44880568 143 17821720624824013597
5265222 85 14924524042727235449
59755656 215 17895188887668496130
9831232 110 18200880552684310542
9962374 69 18270668874643787470

> <PUBCHEM_SHAPE_MULTIPOLES>
661.59
23.85
2.79
1.75
9.06
0.16
-0.41
-15.88
-0.82
-4.55
0.99
2.97
-0.36
2.74

> <PUBCHEM_SHAPE_SELFOVERLAP>
1488.092

> <PUBCHEM_SHAPE_VOLUME>
348.4

> <PUBCHEM_COORDINATE_TYPE>
2
5
10

$$$$
