14521043
  -OEChem-09282022303D

 67 70  0     1  0  0  0  0  0999 V2000
    1.9349   -0.6683   -0.1125 O   0  0  0  0  0  0  0  0  0  0  0  0
    0.3066   -4.3570   -2.2011 O   0  0  0  0  0  0  0  0  0  0  0  0
    4.0472   -0.9625   -1.0632 O   0  0  0  0  0  0  0  0  0  0  0  0
    3.1801   -0.0279    2.3734 O   0  0  0  0  0  0  0  0  0  0  0  0
    5.7671   -1.2791    2.6566 O   0  0  0  0  0  0  0  0  0  0  0  0
   -5.7871   -2.4375    1.3599 O   0  0  0  0  0  0  0  0  0  0  0  0
   -4.9391   -0.0888    2.5786 O   0  0  0  0  0  0  0  0  0  0  0  0
    7.4313   -0.7441    0.2820 O   0  0  0  0  0  0  0  0  0  0  0  0
    0.0093    4.7116    0.8834 O   0  0  0  0  0  0  0  0  0  0  0  0
   -1.5388    5.5273   -1.2765 O   0  0  0  0  0  0  0  0  0  0  0  0
   -0.1039   -0.6883   -1.3587 C   0  0  1  0  0  0  0  0  0  0  0  0
   -0.2738   -2.2251   -1.2922 C   0  0  1  0  0  0  0  0  0  0  0  0
   -0.8666    0.0059   -0.1811 C   0  0  2  0  0  0  0  0  0  0  0  0
   -1.7656   -2.5693   -1.4066 C   0  0  0  0  0  0  0  0  0  0  0  0
   -2.1809   -0.6646    0.2154 C   0  0  0  0  0  0  0  0  0  0  0  0
    1.3780   -0.2773   -1.3500 C   0  0  0  0  0  0  0  0  0  0  0  0
   -2.5938   -1.8776   -0.3601 C   0  0  0  0  0  0  0  0  0  0  0  0
    0.4953   -2.9684   -2.3889 C   0  0  0  0  0  0  0  0  0  0  0  0
   -1.0460    1.4959   -0.4734 C   0  0  0  0  0  0  0  0  0  0  0  0
   -2.9810   -0.0922    1.2237 C   0  0  0  0  0  0  0  0  0  0  0  0
    3.3162   -0.3233   -0.0184 C   0  0  2  0  0  0  0  0  0  0  0  0
   -3.8178   -2.4513    0.0230 C   0  0  0  0  0  0  0  0  0  0  0  0
    3.8231   -0.7855    1.3486 C   0  0  1  0  0  0  0  0  0  0  0  0
    5.3333   -0.5915    1.4824 C   0  0  2  0  0  0  0  0  0  0  0  0
   -0.4314    2.4342    0.3457 C   0  0  0  0  0  0  0  0  0  0  0  0
   -1.8215    1.8936   -1.5550 C   0  0  0  0  0  0  0  0  0  0  0  0
   -4.1866   -0.6789    1.6087 C   0  0  0  0  0  0  0  0  0  0  0  0
   -4.6096   -1.8549    1.0016 C   0  0  0  0  0  0  0  0  0  0  0  0
    6.0673   -1.1499    0.2639 C   0  0  1  0  0  0  0  0  0  0  0  0
    5.4334   -0.6417   -1.0233 C   0  0  0  0  0  0  0  0  0  0  0  0
   -0.5948    3.7935    0.0786 C   0  0  0  0  0  0  0  0  0  0  0  0
   -1.9850    3.2529   -1.8218 C   0  0  0  0  0  0  0  0  0  0  0  0
   -1.3716    4.2028   -1.0051 C   0  0  0  0  0  0  0  0  0  0  0  0
   -6.9533   -2.0384    0.6418 C   0  0  0  0  0  0  0  0  0  0  0  0
    1.3250    5.1257    0.5207 C   0  0  0  0  0  0  0  0  0  0  0  0
   -0.5207   -0.3615   -2.3213 H   0  0  0  0  0  0  0  0  0  0  0  0
    0.0839   -2.5894   -0.3181 H   0  0  0  0  0  0  0  0  0  0  0  0
   -0.2481   -0.0955    0.7223 H   0  0  0  0  0  0  0  0  0  0  0  0
   -2.1507   -2.2854   -2.3945 H   0  0  0  0  0  0  0  0  0  0  0  0
   -1.9013   -3.6528   -1.3013 H   0  0  0  0  0  0  0  0  0  0  0  0
    1.4656    0.8101   -1.4604 H   0  0  0  0  0  0  0  0  0  0  0  0
    1.9131   -0.7194   -2.1951 H   0  0  0  0  0  0  0  0  0  0  0  0
    0.1419   -2.6896   -3.3870 H   0  0  0  0  0  0  0  0  0  0  0  0
    1.5704   -2.7854   -2.3278 H   0  0  0  0  0  0  0  0  0  0  0  0
   -2.6653    0.8240    1.7182 H   0  0  0  0  0  0  0  0  0  0  0  0
    3.4030    0.7680   -0.1098 H   0  0  0  0  0  0  0  0  0  0  0  0
   -4.1495   -3.3783   -0.4406 H   0  0  0  0  0  0  0  0  0  0  0  0
    3.5638   -1.8380    1.5194 H   0  0  0  0  0  0  0  0  0  0  0  0
    5.5813    0.4666    1.6324 H   0  0  0  0  0  0  0  0  0  0  0  0
    0.1759    2.1217    1.1911 H   0  0  0  0  0  0  0  0  0  0  0  0
   -2.3131    1.1682   -2.1970 H   0  0  0  0  0  0  0  0  0  0  0  0
    6.0466   -2.2457    0.2911 H   0  0  0  0  0  0  0  0  0  0  0  0
    5.9172   -1.1106   -1.8872 H   0  0  0  0  0  0  0  0  0  0  0  0
    5.5695    0.4404   -1.1458 H   0  0  0  0  0  0  0  0  0  0  0  0
    0.7940   -4.8123   -2.9087 H   0  0  0  0  0  0  0  0  0  0  0  0
   -2.5944    3.5579   -2.6684 H   0  0  0  0  0  0  0  0  0  0  0  0
    2.2208   -0.1351    2.2550 H   0  0  0  0  0  0  0  0  0  0  0  0
    5.2709   -0.9127    3.4086 H   0  0  0  0  0  0  0  0  0  0  0  0
   -5.7186   -0.6456    2.7472 H   0  0  0  0  0  0  0  0  0  0  0  0
    7.4571    0.2280    0.2702 H   0  0  0  0  0  0  0  0  0  0  0  0
   -7.8132   -2.5638    1.0661 H   0  0  0  0  0  0  0  0  0  0  0  0
   -7.1191   -0.9607    0.7379 H   0  0  0  0  0  0  0  0  0  0  0  0
   -6.8626   -2.3112   -0.4143 H   0  0  0  0  0  0  0  0  0  0  0  0
   -2.1049    5.6207   -2.0619 H   0  0  0  0  0  0  0  0  0  0  0  0
    1.3231    5.5933   -0.4690 H   0  0  0  0  0  0  0  0  0  0  0  0
    2.0118    4.2732    0.5323 H   0  0  0  0  0  0  0  0  0  0  0  0
    1.6674    5.8607    1.2542 H   0  0  0  0  0  0  0  0  0  0  0  0
  1 16  1  0  0  0  0
  1 21  1  0  0  0  0
  2 18  1  0  0  0  0
  2 55  1  0  0  0  0
  3 21  1  0  0  0  0
  3 30  1  0  0  0  0
  4 23  1  0  0  0  0
  4 57  1  0  0  0  0
  5 24  1  0  0  0  0
  5 58  1  0  0  0  0
  6 28  1  0  0  0  0
  6 34  1  0  0  0  0
  7 27  1  0  0  0  0
  7 59  1  0  0  0  0
  8 29  1  0  0  0  0
  8 60  1  0  0  0  0
  9 31  1  0  0  0  0
  9 35  1  0  0  0  0
 10 33  1  0  0  0  0
 10 64  1  0  0  0  0
 11 12  1  0  0  0  0
 11 13  1  0  0  0  0
 11 16  1  0  0  0  0
 11 36  1  0  0  0  0
 12 14  1  0  0  0  0
 12 18  1  0  0  0  0
 12 37  1  0  0  0  0
 13 15  1  0  0  0  0
 13 19  1  0  0  0  0
 13 38  1  0  0  0  0
 14 17  1  0  0  0  0
 14 39  1  0  0  0  0
 14 40  1  0  0  0  0
 15 17  1  0  0  0  0
 15 20  2  0  0  0  0
 16 41  1  0  0  0  0
 16 42  1  0  0  0  0
 17 22  2  0  0  0  0
 18 43  1  0  0  0  0
 18 44  1  0  0  0  0
 19 25  2  0  0  0  0
 19 26  1  0  0  0  0
 20 27  1  0  0  0  0
 20 45  1  0  0  0  0
 21 23  1  0  0  0  0
 21 46  1  0  0  0  0
 22 28  1  0  0  0  0
 22 47  1  0  0  0  0
 23 24  1  0  0  0  0
 23 48  1  0  0  0  0
 24 29  1  0  0  0  0
 24 49  1  0  0  0  0
 25 31  1  0  0  0  0
 25 50  1  0  0  0  0
 26 32  2  0  0  0  0
 26 51  1  0  0  0  0
 27 28  2  0  0  0  0
 29 30  1  0  0  0  0
 29 52  1  0  0  0  0
 30 53  1  0  0  0  0
 30 54  1  0  0  0  0
 31 33  2  0  0  0  0
 32 33  1  0  0  0  0
 32 56  1  0  0  0  0
 34 61  1  0  0  0  0
 34 62  1  0  0  0  0
 34 63  1  0  0  0  0
 35 65  1  0  0  0  0
 35 66  1  0  0  0  0
 35 67  1  0  0  0  0
M  END
> <PUBCHEM_COMPOUND_CID>
14521043

> <PUBCHEM_CONFORMER_RMSD>
1

> <PUBCHEM_CONFORMER_DIVERSEORDER>
1
22
15
25
28
67
4
5
42
55
71
56
63
35
6
47
60
27
10
16
49
29
23
38
30
41
62
57
52
46
43
17
14
65
59
24
12
58
26
9
34
72
54
76
31
8
39
11
64
50
3
66
36
13
44
7
61
48
18
37
19
70
73
74
69
20
53
40
2
45
32
21
51
68
75
33

> <PUBCHEM_MMFF94_PARTIAL_CHARGES>
44
1 -0.56
10 -0.53
13 0.29
14 0.14
15 -0.14
16 0.28
17 -0.14
18 0.28
19 -0.14
2 -0.68
20 -0.15
21 0.56
22 -0.15
23 0.28
24 0.28
25 -0.15
26 -0.15
27 0.08
28 0.08
29 0.28
3 -0.56
30 0.28
31 0.08
32 -0.15
33 0.08
34 0.28
35 0.28
4 -0.68
45 0.15
47 0.15
5 -0.68
50 0.15
51 0.15
55 0.4
56 0.15
57 0.4
58 0.4
59 0.45
6 -0.36
60 0.4
64 0.45
7 -0.53
8 -0.68
9 -0.36

> <PUBCHEM_EFFECTIVE_ROTOR_COUNT>
9

> <PUBCHEM_PHARMACOPHORE_FEATURES>
18
1 1 acceptor
1 10 donor
1 2 acceptor
1 2 donor
1 3 acceptor
1 4 acceptor
1 4 donor
1 5 acceptor
1 5 donor
1 6 acceptor
1 7 donor
1 8 acceptor
1 8 donor
1 9 acceptor
6 11 12 13 14 15 17 rings
6 15 17 20 22 27 28 rings
6 19 25 26 31 32 33 rings
6 3 21 23 24 29 30 rings

> <PUBCHEM_HEAVY_ATOM_COUNT>
35

> <PUBCHEM_ATOM_DEF_STEREO_COUNT>
7

> <PUBCHEM_ATOM_UDEF_STEREO_COUNT>
0

> <PUBCHEM_BOND_DEF_STEREO_COUNT>
0

> <PUBCHEM_BOND_UDEF_STEREO_COUNT>
0

> <PUBCHEM_ISOTOPIC_ATOM_COUNT>
0

> <PUBCHEM_COMPONENT_COUNT>
1

> <PUBCHEM_CACTVS_TAUTO_COUNT>
26

> <PUBCHEM_CONFORMER_ID>
00DD92D300000001

> <PUBCHEM_MMFF94_ENERGY>
123.5947

> <PUBCHEM_FEATURE_SELFOVERLAP>
91.431

> <PUBCHEM_SHAPE_FINGERPRINT>
10305334 12 17463959169251643178
10653451 467 18410852119625606093
11297750 10 17625291639977110207
11456790 92 18114197350138031547
11578080 2 17841725014967401939
12107698 1 18187088360556265284
12422481 6 18341346500016314563
12608794 3 18199740509640286887
12788726 201 18186524289120663698
13540713 4 18055079757243128086
13540713 5 17554614268403311247
14068700 675 17894349994819407582
14400156 147 15942940168363855082
15420108 30 17624697155988146589
15775530 1 17767131899513071047
17980427 23 17560240370380366767
1813 80 18336548325619374201
19319366 153 17536048984170661820
20600515 1 17916603036270782791
20739085 24 18268446791861836485
21033648 29 17916001496759120936
21304303 282 17609190391799704525
21639891 77 18261666000522035205
25019877 29 16702029703208989303
3380486 145 18411987927842055095
376196 1 17332224417289476524
4409770 3 18261950726967992957
469060 322 18129928053409941663
50150288 127 17825663361614477585
6086070 43 18115015416775012067
9896288 288 18190738631464838594
9981440 41 17838591406464191308

> <PUBCHEM_SHAPE_MULTIPOLES>
661.59
12.69
6.2
2.22
10.94
11.12
0.35
-12.48
8.83
-3.36
-2.67
0.26
-0.98
1.33

> <PUBCHEM_SHAPE_SELFOVERLAP>
1414.616

> <PUBCHEM_SHAPE_VOLUME>
363

> <PUBCHEM_COORDINATE_TYPE>
2
5
10

$$$$
