441764
  -OEChem-09282022293D

 57 61  0     1  0  0  0  0  0999 V2000
    2.7996   -0.3726   -1.7170 O   0  0  0  0  0  0  0  0  0  0  0  0
   -3.2518   -0.7382   -0.3798 O   0  0  0  0  0  0  0  0  0  0  0  0
    2.9680   -2.2389    2.2616 O   0  0  0  0  0  0  0  0  0  0  0  0
    1.1309    0.5741   -3.8418 O   0  0  0  0  0  0  0  0  0  0  0  0
   -2.3499    2.8129   -0.0052 O   0  0  0  0  0  0  0  0  0  0  0  0
   -4.8661    2.7808    0.9816 O   0  0  0  0  0  0  0  0  0  0  0  0
    6.5137    2.0686    1.0618 O   0  0  0  0  0  0  0  0  0  0  0  0
   -7.1539    1.5998    1.3298 O   0  0  0  0  0  0  0  0  0  0  0  0
    8.4543    0.0785    1.0443 O   0  0  0  0  0  0  0  0  0  0  0  0
   -7.3771   -2.9999    0.1841 O   0  0  0  0  0  0  0  0  0  0  0  0
    2.0987   -0.7833    0.5782 C   0  0  1  0  0  0  0  0  0  0  0  0
    3.1424   -1.1176   -0.5143 C   0  0  2  0  0  0  0  0  0  0  0  0
    0.9721   -0.3737   -0.3035 C   0  0  0  0  0  0  0  0  0  0  0  0
    1.4557   -0.1300   -1.5817 C   0  0  0  0  0  0  0  0  0  0  0  0
   -1.2069    0.2917   -1.0227 C   0  0  0  0  0  0  0  0  0  0  0  0
    1.8075   -1.9604    1.4972 C   0  0  0  0  0  0  0  0  0  0  0  0
   -0.3629   -0.1613   -0.0048 C   0  0  0  0  0  0  0  0  0  0  0  0
   -2.6764    0.5303   -0.7304 C   0  0  2  0  0  0  0  0  0  0  0  0
    4.5589   -0.7950   -0.0972 C   0  0  0  0  0  0  0  0  0  0  0  0
    0.6431    0.3314   -2.5997 C   0  0  0  0  0  0  0  0  0  0  0  0
   -2.8731    1.5560    0.3873 C   0  0  2  0  0  0  0  0  0  0  0  0
   -0.7065    0.5377   -2.3115 C   0  0  0  0  0  0  0  0  0  0  0  0
    4.8929    0.5013    0.2953 C   0  0  0  0  0  0  0  0  0  0  0  0
   -4.3556    1.7203    0.6409 C   0  0  0  0  0  0  0  0  0  0  0  0
    5.5332   -1.7935   -0.1054 C   0  0  0  0  0  0  0  0  0  0  0  0
   -5.1679    0.4973    0.4884 C   0  0  0  0  0  0  0  0  0  0  0  0
   -4.5648   -0.6650    0.0022 C   0  0  0  0  0  0  0  0  0  0  0  0
    6.2003    0.7991    0.6794 C   0  0  0  0  0  0  0  0  0  0  0  0
    6.8407   -1.4958    0.2786 C   0  0  0  0  0  0  0  0  0  0  0  0
   -6.5172    0.4939    0.8528 C   0  0  0  0  0  0  0  0  0  0  0  0
    7.1742   -0.1995    0.6710 C   0  0  0  0  0  0  0  0  0  0  0  0
   -5.3064   -1.8441   -0.0865 C   0  0  0  0  0  0  0  0  0  0  0  0
   -6.6525   -1.8515    0.2803 C   0  0  0  0  0  0  0  0  0  0  0  0
   -7.2576   -0.6835    0.7445 C   0  0  0  0  0  0  0  0  0  0  0  0
    5.4604    3.0300    1.0421 C   0  0  0  0  0  0  0  0  0  0  0  0
    2.3932    0.0857    1.1785 H   0  0  0  0  0  0  0  0  0  0  0  0
    3.0749   -2.1796   -0.7935 H   0  0  0  0  0  0  0  0  0  0  0  0
    1.5358   -2.8607    0.9359 H   0  0  0  0  0  0  0  0  0  0  0  0
    0.9860   -1.7405    2.1871 H   0  0  0  0  0  0  0  0  0  0  0  0
   -0.7344   -0.3457    0.9976 H   0  0  0  0  0  0  0  0  0  0  0  0
   -3.1634    0.8821   -1.6519 H   0  0  0  0  0  0  0  0  0  0  0  0
   -2.4096    1.2495    1.3320 H   0  0  0  0  0  0  0  0  0  0  0  0
   -1.3687    0.8959   -3.0965 H   0  0  0  0  0  0  0  0  0  0  0  0
    4.1051    1.2457    0.2646 H   0  0  0  0  0  0  0  0  0  0  0  0
    5.2883   -2.8080   -0.4080 H   0  0  0  0  0  0  0  0  0  0  0  0
    3.1765   -1.4450    2.7830 H   0  0  0  0  0  0  0  0  0  0  0  0
    7.5895   -2.2833    0.2677 H   0  0  0  0  0  0  0  0  0  0  0  0
    2.0826    0.3706   -3.8417 H   0  0  0  0  0  0  0  0  0  0  0  0
   -2.4253    3.4129    0.7565 H   0  0  0  0  0  0  0  0  0  0  0  0
   -4.8398   -2.7563   -0.4504 H   0  0  0  0  0  0  0  0  0  0  0  0
   -8.3075   -0.6967    1.0283 H   0  0  0  0  0  0  0  0  0  0  0  0
   -8.0815    1.3824    1.5242 H   0  0  0  0  0  0  0  0  0  0  0  0
    8.9873   -0.7322    0.9760 H   0  0  0  0  0  0  0  0  0  0  0  0
    4.6635    2.7716    1.7479 H   0  0  0  0  0  0  0  0  0  0  0  0
    5.0830    3.1948    0.0271 H   0  0  0  0  0  0  0  0  0  0  0  0
    5.8864    3.9807    1.3798 H   0  0  0  0  0  0  0  0  0  0  0  0
   -8.2875   -2.8248    0.4781 H   0  0  0  0  0  0  0  0  0  0  0  0
  1 12  1  0  0  0  0
  1 14  1  0  0  0  0
  2 18  1  0  0  0  0
  2 27  1  0  0  0  0
  3 16  1  0  0  0  0
  3 46  1  0  0  0  0
  4 20  1  0  0  0  0
  4 48  1  0  0  0  0
  5 21  1  0  0  0  0
  5 49  1  0  0  0  0
  6 24  2  0  0  0  0
  7 28  1  0  0  0  0
  7 35  1  0  0  0  0
  8 30  1  0  0  0  0
  8 52  1  0  0  0  0
  9 31  1  0  0  0  0
  9 53  1  0  0  0  0
 10 33  1  0  0  0  0
 10 57  1  0  0  0  0
 11 12  1  0  0  0  0
 11 13  1  0  0  0  0
 11 16  1  0  0  0  0
 11 36  1  0  0  0  0
 12 19  1  0  0  0  0
 12 37  1  0  0  0  0
 13 14  2  0  0  0  0
 13 17  1  0  0  0  0
 14 20  1  0  0  0  0
 15 17  2  0  0  0  0
 15 18  1  0  0  0  0
 15 22  1  0  0  0  0
 16 38  1  0  0  0  0
 16 39  1  0  0  0  0
 17 40  1  0  0  0  0
 18 21  1  0  0  0  0
 18 41  1  0  0  0  0
 19 23  2  0  0  0  0
 19 25  1  0  0  0  0
 20 22  2  0  0  0  0
 21 24  1  0  0  0  0
 21 42  1  0  0  0  0
 22 43  1  0  0  0  0
 23 28  1  0  0  0  0
 23 44  1  0  0  0  0
 24 26  1  0  0  0  0
 25 29  2  0  0  0  0
 25 45  1  0  0  0  0
 26 27  1  0  0  0  0
 26 30  2  0  0  0  0
 27 32  2  0  0  0  0
 28 31  2  0  0  0  0
 29 31  1  0  0  0  0
 29 47  1  0  0  0  0
 30 34  1  0  0  0  0
 32 33  1  0  0  0  0
 32 50  1  0  0  0  0
 33 34  2  0  0  0  0
 34 51  1  0  0  0  0
 35 54  1  0  0  0  0
 35 55  1  0  0  0  0
 35 56  1  0  0  0  0
M  END
> <PUBCHEM_COMPOUND_CID>
441764

> <PUBCHEM_CONFORMER_RMSD>
0.8

> <PUBCHEM_CONFORMER_DIVERSEORDER>
1
34
54
25
4
56
41
21
57
50
40
35
48
8
36
31
26
47
32
2
46
55
23
13
42
17
37
51
52
15
19
24
12
11
29
53
30
45
7
43
14
9
33
16
6
38
20
18
5
27
39
49
44
10
22
28
3

> <PUBCHEM_MMFF94_PARTIAL_CHARGES>
48
1 -0.36
10 -0.53
11 0.14
12 0.42
13 -0.14
14 0.08
15 -0.14
16 0.28
17 -0.15
18 0.42
19 -0.14
2 -0.36
20 0.08
21 0.34
22 -0.15
23 -0.15
24 0.42
25 -0.15
26 0.09
27 0.08
28 0.08
29 -0.15
3 -0.68
30 0.08
31 0.08
32 -0.15
33 0.08
34 -0.15
35 0.28
4 -0.53
40 0.15
43 0.15
44 0.15
45 0.15
46 0.4
47 0.15
48 0.45
49 0.4
5 -0.68
50 0.15
51 0.15
52 0.45
53 0.45
57 0.45
6 -0.57
7 -0.36
8 -0.53
9 -0.53

> <PUBCHEM_EFFECTIVE_ROTOR_COUNT>
5.2

> <PUBCHEM_PHARMACOPHORE_FEATURES>
17
1 1 acceptor
1 10 donor
1 2 acceptor
1 3 acceptor
1 3 donor
1 4 donor
1 5 acceptor
1 5 donor
1 6 acceptor
1 7 acceptor
1 8 donor
1 9 donor
5 1 11 12 13 14 rings
6 13 14 15 17 20 22 rings
6 19 23 25 28 29 31 rings
6 2 18 21 24 26 27 rings
6 26 27 30 32 33 34 rings

> <PUBCHEM_HEAVY_ATOM_COUNT>
35

> <PUBCHEM_ATOM_DEF_STEREO_COUNT>
4

> <PUBCHEM_ATOM_UDEF_STEREO_COUNT>
0

> <PUBCHEM_BOND_DEF_STEREO_COUNT>
0

> <PUBCHEM_BOND_UDEF_STEREO_COUNT>
0

> <PUBCHEM_ISOTOPIC_ATOM_COUNT>
0

> <PUBCHEM_COMPONENT_COUNT>
1

> <PUBCHEM_CACTVS_TAUTO_COUNT>
994

> <PUBCHEM_CONFORMER_ID>
0006BDA400000001

> <PUBCHEM_MMFF94_ENERGY>
112.9038

> <PUBCHEM_FEATURE_SELFOVERLAP>
86.417

> <PUBCHEM_SHAPE_FINGERPRINT>
10 15 17632859719827482055
10165383 225 15626223515571976677
10369192 42 16630525137243502324
11135926 11 16298103173264564451
11456790 92 18341038650510278568
11719270 70 13623523559181959088
11991303 11 16845286185297822958
12166972 35 17675930914703217685
12236239 1 18113631079731576879
12596602 18 18412263913111836337
13177829 20 18413389855931441218
13692114 37 18113619036391091650
13782708 43 17605546649278948354
13947934 56 18260266379098351831
14068700 675 17894351094489512461
14394314 77 18334014957083827601
14849402 71 18335706100309402132
14933364 13 18273214184159289544
15064981 113 11675421016504925491
15183329 4 8790888484176580252
15439362 3 8934186740167640609
19377110 9 18114179709499213785
19611394 137 18131073774653866483
20028762 73 17894916234845222770
20511986 3 18114175295037724153
21033648 29 16988017003168327389
21130935 74 18411139112786011562
21223535 225 15719382907760277309
21792961 116 16773520958738027190
22122407 14 18059861692500195072
22224240 67 17894910737597651450
23559900 14 17771373906315722733
23569943 247 17607800600623667746
23576562 1 15050863426106203704
24771293 8 17821733849212245100
3383291 50 17822583810609261379
3418910 222 18200887243985660944
3663271 9 18411982429608780426
38570 142 12319743565954504381
392239 28 18334579014611420400
397830 11 18272091582402228124
4112364 45 17417523726946858704
4144715 1 18057334885339624496
4149490 64 17169282627567778611
4173938 77 14548726348779330019
4340502 62 18409729552291235366
4625314 4 18342457006818176117
474113 269 13768466675524387904
5028188 123 18188219693718531574
504843 32 15625931067101668533
5385378 56 14836133130454878630
6126387 218 17822003208429079101
613672 6 15936698068594601617
6608658 132 11527955513378082355
68570916 9 18200310047271381254
9689198 14 17704072906705938704
9953998 17 18341334414495139649

> <PUBCHEM_SHAPE_MULTIPOLES>
661.59
22.75
2.56
1.94
0.02
0.72
-1.86
-2.28
11.57
-1.19
1.19
1.05
0.28
-0.2

> <PUBCHEM_SHAPE_SELFOVERLAP>
1480.199

> <PUBCHEM_SHAPE_VOLUME>
349.4

> <PUBCHEM_COORDINATE_TYPE>
2
5
10

$$$$
