3085830
  -OEChem-09282022453D

 57 61  0     1  0  0  0  0  0999 V2000
    1.3196    0.5218    1.4051 O   0  0  0  0  0  0  0  0  0  0  0  0
    2.6810    0.2143   -1.1123 O   0  0  0  0  0  0  0  0  0  0  0  0
   -3.5032    0.7648   -0.4085 O   0  0  0  0  0  0  0  0  0  0  0  0
   -2.7977   -2.8389   -0.1270 O   0  0  0  0  0  0  0  0  0  0  0  0
    2.7857    0.3579    3.7106 O   0  0  0  0  0  0  0  0  0  0  0  0
   -5.4233   -2.7444    0.5087 O   0  0  0  0  0  0  0  0  0  0  0  0
   -7.6903   -1.4798    0.6130 O   0  0  0  0  0  0  0  0  0  0  0  0
    7.3573   -1.7990   -0.1735 O   0  0  0  0  0  0  0  0  0  0  0  0
   -7.5774    3.1802   -0.2783 O   0  0  0  0  0  0  0  0  0  0  0  0
    8.8892    0.4825   -0.5870 O   0  0  0  0  0  0  0  0  0  0  0  0
    3.2713    0.8986    0.0071 C   0  0  1  0  0  0  0  0  0  0  0  0
    2.7394    0.3066    1.3226 C   0  0  1  0  0  0  0  0  0  0  0  0
   -2.9334   -0.5081   -0.7524 C   0  0  1  0  0  0  0  0  0  0  0  0
   -1.4296   -0.3218   -0.8275 C   0  0  0  0  0  0  0  0  0  0  0  0
   -3.3218   -1.5822    0.2650 C   0  0  1  0  0  0  0  0  0  0  0  0
    0.6710    0.1939    0.2462 C   0  0  0  0  0  0  0  0  0  0  0  0
    1.3323    0.0347   -0.9709 C   0  0  0  0  0  0  0  0  0  0  0  0
    4.7718    0.7843   -0.1513 C   0  0  0  0  0  0  0  0  0  0  0  0
   -0.7130    0.0311    0.3162 C   0  0  0  0  0  0  0  0  0  0  0  0
    3.3456    0.9632    2.5599 C   0  0  0  0  0  0  0  0  0  0  0  0
   -0.7642   -0.5084   -2.0392 C   0  0  0  0  0  0  0  0  0  0  0  0
   -4.8305   -1.6916    0.3044 C   0  0  0  0  0  0  0  0  0  0  0  0
    0.6175   -0.3314   -2.1120 C   0  0  0  0  0  0  0  0  0  0  0  0
   -5.5666   -0.4261    0.1162 C   0  0  0  0  0  0  0  0  0  0  0  0
   -4.8581    0.7315   -0.2134 C   0  0  0  0  0  0  0  0  0  0  0  0
    5.3856   -0.4666   -0.0894 C   0  0  0  0  0  0  0  0  0  0  0  0
    5.5403    1.9295   -0.3586 C   0  0  0  0  0  0  0  0  0  0  0  0
   -6.9521   -0.3803    0.2935 C   0  0  0  0  0  0  0  0  0  0  0  0
   -5.5348    1.9468   -0.3319 C   0  0  0  0  0  0  0  0  0  0  0  0
    6.7690   -0.5721   -0.2348 C   0  0  0  0  0  0  0  0  0  0  0  0
    6.9233    1.8240   -0.5040 C   0  0  0  0  0  0  0  0  0  0  0  0
   -6.9174    1.9962   -0.1515 C   0  0  0  0  0  0  0  0  0  0  0  0
   -7.6249    0.8341    0.1559 C   0  0  0  0  0  0  0  0  0  0  0  0
    7.5377    0.5733   -0.4422 C   0  0  0  0  0  0  0  0  0  0  0  0
    6.5006   -2.9189    0.0413 C   0  0  0  0  0  0  0  0  0  0  0  0
    2.9720    1.9540   -0.0701 H   0  0  0  0  0  0  0  0  0  0  0  0
    2.8931   -0.7802    1.3736 H   0  0  0  0  0  0  0  0  0  0  0  0
   -3.3005   -0.7875   -1.7512 H   0  0  0  0  0  0  0  0  0  0  0  0
   -2.9822   -1.3486    1.2805 H   0  0  0  0  0  0  0  0  0  0  0  0
   -1.2206    0.1823    1.2654 H   0  0  0  0  0  0  0  0  0  0  0  0
    3.0993    2.0291    2.5986 H   0  0  0  0  0  0  0  0  0  0  0  0
    4.4323    0.8510    2.6069 H   0  0  0  0  0  0  0  0  0  0  0  0
   -1.3091   -0.7874   -2.9370 H   0  0  0  0  0  0  0  0  0  0  0  0
    1.1273   -0.4696   -3.0617 H   0  0  0  0  0  0  0  0  0  0  0  0
    4.7416   -1.3254    0.0624 H   0  0  0  0  0  0  0  0  0  0  0  0
    5.0758    2.9106   -0.4084 H   0  0  0  0  0  0  0  0  0  0  0  0
   -4.9878    2.8547   -0.5743 H   0  0  0  0  0  0  0  0  0  0  0  0
   -3.0010   -3.4749    0.5801 H   0  0  0  0  0  0  0  0  0  0  0  0
    7.5103    2.7243   -0.6650 H   0  0  0  0  0  0  0  0  0  0  0  0
   -8.7027    0.8708    0.2964 H   0  0  0  0  0  0  0  0  0  0  0  0
    3.0312   -0.5830    3.6987 H   0  0  0  0  0  0  0  0  0  0  0  0
   -7.1247   -2.2639    0.6789 H   0  0  0  0  0  0  0  0  0  0  0  0
   -8.5257    3.0311   -0.1217 H   0  0  0  0  0  0  0  0  0  0  0  0
    9.2537    1.3741   -0.7220 H   0  0  0  0  0  0  0  0  0  0  0  0
    7.1363   -3.8102    0.0659 H   0  0  0  0  0  0  0  0  0  0  0  0
    5.7972   -3.0541   -0.7873 H   0  0  0  0  0  0  0  0  0  0  0  0
    5.9970   -2.8621    1.0124 H   0  0  0  0  0  0  0  0  0  0  0  0
  1 12  1  0  0  0  0
  1 16  1  0  0  0  0
  2 11  1  0  0  0  0
  2 17  1  0  0  0  0
  3 13  1  0  0  0  0
  3 25  1  0  0  0  0
  4 15  1  0  0  0  0
  4 48  1  0  0  0  0
  5 20  1  0  0  0  0
  5 51  1  0  0  0  0
  6 22  2  0  0  0  0
  7 28  1  0  0  0  0
  7 52  1  0  0  0  0
  8 30  1  0  0  0  0
  8 35  1  0  0  0  0
  9 32  1  0  0  0  0
  9 53  1  0  0  0  0
 10 34  1  0  0  0  0
 10 54  1  0  0  0  0
 11 12  1  0  0  0  0
 11 18  1  0  0  0  0
 11 36  1  0  0  0  0
 12 20  1  0  0  0  0
 12 37  1  0  0  0  0
 13 14  1  0  0  0  0
 13 15  1  0  0  0  0
 13 38  1  0  0  0  0
 14 19  2  0  0  0  0
 14 21  1  0  0  0  0
 15 22  1  0  0  0  0
 15 39  1  0  0  0  0
 16 17  2  0  0  0  0
 16 19  1  0  0  0  0
 17 23  1  0  0  0  0
 18 26  2  0  0  0  0
 18 27  1  0  0  0  0
 19 40  1  0  0  0  0
 20 41  1  0  0  0  0
 20 42  1  0  0  0  0
 21 23  2  0  0  0  0
 21 43  1  0  0  0  0
 22 24  1  0  0  0  0
 23 44  1  0  0  0  0
 24 25  1  0  0  0  0
 24 28  2  0  0  0  0
 25 29  2  0  0  0  0
 26 30  1  0  0  0  0
 26 45  1  0  0  0  0
 27 31  2  0  0  0  0
 27 46  1  0  0  0  0
 28 33  1  0  0  0  0
 29 32  1  0  0  0  0
 29 47  1  0  0  0  0
 30 34  2  0  0  0  0
 31 34  1  0  0  0  0
 31 49  1  0  0  0  0
 32 33  2  0  0  0  0
 33 50  1  0  0  0  0
 35 55  1  0  0  0  0
 35 56  1  0  0  0  0
 35 57  1  0  0  0  0
M  END
> <PUBCHEM_COMPOUND_CID>
3085830

> <PUBCHEM_CONFORMER_RMSD>
1

> <PUBCHEM_CONFORMER_DIVERSEORDER>
10
72
349
107
169
228
605
166
47
551
663
81
419
302
27
40
115
262
220
299
3
160
119
431
499
270
396
11
671
144
494
307
520
261
385
74
24
258
14
234
315
185
93
390
188
555
118
111
38
112
313
20
167
86
59
65
314
339
329
161
344
320
584
350
181
257
267
197
193
269
367
133
406
440
33
274
64
565
219
4
673
52
157
84
101
578
70
558
163
256
477
57
23
78
51
389
351
652
213
291
629
87
131
445
128
590
6
134
370
236
37
140
191
62
240
401
670
252
595
132
89
567
146
300
325
149
227
67
99
212
121
21
94
359
117
292
402
46
187
174
48
68
264
369
647
238
179
437
289
31
356
247
554
640
2
147
495
154
55
276
41
381
659
63
413
1
13
69
231
12
80
56
19
486
383
156
491
45
43
66
135
82
127
272
152
143
60
9
297
124
512
511
366
114
427
103
15
76
644
380
162
22
294
165
50
129
54
180
18
153
343
61
123
649
17
496
168
273
435
164
571
672

> <PUBCHEM_MMFF94_PARTIAL_CHARGES>
48
1 -0.36
10 -0.53
11 0.42
12 0.28
13 0.42
14 -0.14
15 0.34
16 0.08
17 0.08
18 -0.14
19 -0.15
2 -0.36
20 0.28
21 -0.15
22 0.42
23 -0.15
24 0.09
25 0.08
26 -0.15
27 -0.15
28 0.08
29 -0.15
3 -0.36
30 0.08
31 -0.15
32 0.08
33 -0.15
34 0.08
35 0.28
4 -0.68
40 0.15
43 0.15
44 0.15
45 0.15
46 0.15
47 0.15
48 0.4
49 0.15
5 -0.68
50 0.15
51 0.4
52 0.45
53 0.45
54 0.45
6 -0.57
7 -0.53
8 -0.36
9 -0.53

> <PUBCHEM_EFFECTIVE_ROTOR_COUNT>
5.4

> <PUBCHEM_PHARMACOPHORE_FEATURES>
17
1 1 acceptor
1 10 donor
1 2 acceptor
1 3 acceptor
1 4 acceptor
1 4 donor
1 5 acceptor
1 5 donor
1 6 acceptor
1 7 donor
1 8 acceptor
1 9 donor
6 1 2 11 12 16 17 rings
6 14 16 17 19 21 23 rings
6 18 26 27 30 31 34 rings
6 24 25 28 29 32 33 rings
6 3 13 15 22 24 25 rings

> <PUBCHEM_HEAVY_ATOM_COUNT>
35

> <PUBCHEM_ATOM_DEF_STEREO_COUNT>
0

> <PUBCHEM_ATOM_UDEF_STEREO_COUNT>
4

> <PUBCHEM_BOND_DEF_STEREO_COUNT>
0

> <PUBCHEM_BOND_UDEF_STEREO_COUNT>
0

> <PUBCHEM_ISOTOPIC_ATOM_COUNT>
0

> <PUBCHEM_COMPONENT_COUNT>
1

> <PUBCHEM_CACTVS_TAUTO_COUNT>
117

> <PUBCHEM_CONFORMER_ID>
002F16060000000A

> <PUBCHEM_MMFF94_ENERGY>
116.6381

> <PUBCHEM_FEATURE_SELFOVERLAP>
86.362

> <PUBCHEM_SHAPE_FINGERPRINT>
10 15 18273500091262766079
100830 39 18409167684664583861
102385 1 15765590858210617724
10299344 5 17967250909891266642
10319688 140 16878490221487744506
10319926 262 18341885329554773139
10411042 1 17904768027599495563
10580692 12 18408325496926570670
10674148 151 18187082858887788842
11181472 205 18129955481477437636
11719270 70 17775005665920784150
12082328 90 18408603678143374351
12236239 1 17458347464151279127
12664476 115 17846501435745567073
12838862 33 16486965186351015796
13617811 41 14779267501943088974
13885169 127 18408324389025228031
14118638 360 15430303712130570285
14840074 17 16370718244760806651
14933364 13 18408041822895092396
15131766 46 17910951663228884348
15142383 8 18201998824982338252
15183329 4 16559033791973167828
15301273 46 17967812734389170574
15328829 1 17313107436677642021
15461852 350 18201712986545462039
15537594 2 16153701042059181626
1577012 14 17603858984639286417
19611394 137 18264779929605694097
19841028 212 18338234852979361274
20105231 36 16660651730143196802
21033648 29 17916853729248771913
21130935 74 18334015012364709106
21344244 181 17530967948145722322
21521721 280 16153714271355090332
21792938 703 16443640063955480283
21792961 116 17703799093898214628
22149856 69 14779822690183828508
22224240 67 16081087108486782752
22311459 1 16200154292157905812
23516275 137 18041855986683235106
23559900 14 18339076094071792361
23576562 1 16772659091497962972
24771293 8 16951128512489662780
2747138 104 15357701894112554276
2838139 119 16271927117269422625
3178227 256 17275389823999825154
335352 9 16272208617805160972
4073 2 18041565857647543610
4093350 32 17677047945639393378
4098825 35 18335139787158314516
4144715 1 18191871329898592353
4325135 7 11025797600557504654
4339292 15 17060046113215712463
45270241 37 18410864283325825644
5028188 123 17967541211563977726
5265222 85 18268433619223851070
5758199 1 16877942763180528920
6009941 240 18409171012635938470
6086070 43 16630236000097720510
6371009 1 15482673480783758595
6371380 46 17703785946734517058

> <PUBCHEM_SHAPE_MULTIPOLES>
661.59
26.06
2.38
1.63
2.06
0.65
-1.19
-3.8
0.4
-1.96
-0.04
1.72
-0.23
0.79

> <PUBCHEM_SHAPE_SELFOVERLAP>
1474.244

> <PUBCHEM_SHAPE_VOLUME>
349

> <PUBCHEM_COORDINATE_TYPE>
2
5
10

$$$$
