5467200
  -OEChem-09282022283D

 55 59  0     1  0  0  0  0  0999 V2000
    2.0690   -0.2230    0.4545 O   0  0  0  0  0  0  0  0  0  0  0  0
    2.4209   -2.6085   -1.1173 O   0  0  0  0  0  0  0  0  0  0  0  0
    4.8111   -2.9887   -2.3957 O   0  0  0  0  0  0  0  0  0  0  0  0
   -3.2379    0.1253   -0.8068 O   0  0  0  0  0  0  0  0  0  0  0  0
    5.8398    3.0965   -0.7993 O   0  0  0  0  0  0  0  0  0  0  0  0
    7.4044    2.8381    1.4835 O   0  0  0  0  0  0  0  0  0  0  0  0
   -2.8442   -1.9370    2.2230 O   0  0  0  0  0  0  0  0  0  0  0  0
   -5.3904   -0.8558    2.5111 O   0  0  0  0  0  0  0  0  0  0  0  0
   -7.3653    0.6432    1.6802 O   0  0  0  0  0  0  0  0  0  0  0  0
   -6.7237    2.8971   -2.4494 O   0  0  0  0  0  0  0  0  0  0  0  0
    3.3194   -0.9321    0.3953 C   0  0  1  0  0  0  0  0  0  0  0  0
    3.4627   -1.6279   -0.9682 C   0  0  1  0  0  0  0  0  0  0  0  0
    4.4094    0.0772    0.6833 C   0  0  0  0  0  0  0  0  0  0  0  0
    4.7831   -2.3785   -1.1185 C   0  0  0  0  0  0  0  0  0  0  0  0
    1.0194   -0.9611   -0.0196 C   0  0  0  0  0  0  0  0  0  0  0  0
    1.1897   -2.1225   -0.7722 C   0  0  0  0  0  0  0  0  0  0  0  0
   -0.2645   -0.5000    0.2732 C   0  0  0  0  0  0  0  0  0  0  0  0
   -1.3772   -1.2197   -0.1627 C   0  0  0  0  0  0  0  0  0  0  0  0
    4.6295    1.1359   -0.1974 C   0  0  0  0  0  0  0  0  0  0  0  0
    0.0771   -2.8502   -1.1958 C   0  0  0  0  0  0  0  0  0  0  0  0
    5.1942   -0.0523    1.8289 C   0  0  0  0  0  0  0  0  0  0  0  0
   -1.2065   -2.3966   -0.8916 C   0  0  0  0  0  0  0  0  0  0  0  0
   -2.7345   -0.7394    0.1522 C   0  0  0  0  0  0  0  0  0  0  0  0
    5.6348    2.0658    0.0676 C   0  0  0  0  0  0  0  0  0  0  0  0
    6.1996    0.8774    2.0939 C   0  0  0  0  0  0  0  0  0  0  0  0
    6.4199    1.9364    1.2134 C   0  0  0  0  0  0  0  0  0  0  0  0
   -3.3871   -1.1001    1.2722 C   0  0  0  0  0  0  0  0  0  0  0  0
   -5.2821    0.3442    0.4837 C   0  0  0  0  0  0  0  0  0  0  0  0
   -4.4949    0.6418   -0.6265 C   0  0  0  0  0  0  0  0  0  0  0  0
   -4.7480   -0.5622    1.5117 C   0  0  0  0  0  0  0  0  0  0  0  0
   -6.5565    0.9014    0.6150 C   0  0  0  0  0  0  0  0  0  0  0  0
   -4.9779    1.5006   -1.6142 C   0  0  0  0  0  0  0  0  0  0  0  0
   -6.2500    2.0589   -1.4869 C   0  0  0  0  0  0  0  0  0  0  0  0
   -7.0375    1.7596   -0.3744 C   0  0  0  0  0  0  0  0  0  0  0  0
    4.9942    3.1564   -1.9464 C   0  0  0  0  0  0  0  0  0  0  0  0
    3.2960   -1.6874    1.1942 H   0  0  0  0  0  0  0  0  0  0  0  0
    3.3472   -0.9216   -1.8019 H   0  0  0  0  0  0  0  0  0  0  0  0
    4.8679   -3.1760   -0.3733 H   0  0  0  0  0  0  0  0  0  0  0  0
    5.6533   -1.7220   -1.0322 H   0  0  0  0  0  0  0  0  0  0  0  0
   -0.3904    0.4140    0.8496 H   0  0  0  0  0  0  0  0  0  0  0  0
    3.9846    1.1968   -1.0668 H   0  0  0  0  0  0  0  0  0  0  0  0
    0.2016   -3.7634   -1.7714 H   0  0  0  0  0  0  0  0  0  0  0  0
    5.0347   -0.8724    2.5237 H   0  0  0  0  0  0  0  0  0  0  0  0
   -2.0652   -2.9693   -1.2339 H   0  0  0  0  0  0  0  0  0  0  0  0
    6.8039    0.7647    2.9900 H   0  0  0  0  0  0  0  0  0  0  0  0
    4.7711   -2.2815   -3.0620 H   0  0  0  0  0  0  0  0  0  0  0  0
   -4.3661    1.7353   -2.4816 H   0  0  0  0  0  0  0  0  0  0  0  0
   -8.0283    2.1988   -0.2819 H   0  0  0  0  0  0  0  0  0  0  0  0
    7.8420    2.5895    2.3158 H   0  0  0  0  0  0  0  0  0  0  0  0
   -1.9551   -2.2143    1.9494 H   0  0  0  0  0  0  0  0  0  0  0  0
    5.2992    4.0346   -2.5252 H   0  0  0  0  0  0  0  0  0  0  0  0
    3.9459    3.3090   -1.6678 H   0  0  0  0  0  0  0  0  0  0  0  0
    5.1319    2.2853   -2.5960 H   0  0  0  0  0  0  0  0  0  0  0  0
   -8.2023    1.1273    1.5771 H   0  0  0  0  0  0  0  0  0  0  0  0
   -7.6174    3.1902   -2.2011 H   0  0  0  0  0  0  0  0  0  0  0  0
  1 11  1  0  0  0  0
  1 15  1  0  0  0  0
  2 12  1  0  0  0  0
  2 16  1  0  0  0  0
  3 14  1  0  0  0  0
  3 46  1  0  0  0  0
  4 23  1  0  0  0  0
  4 29  1  0  0  0  0
  5 24  1  0  0  0  0
  5 35  1  0  0  0  0
  6 26  1  0  0  0  0
  6 49  1  0  0  0  0
  7 27  1  0  0  0  0
  7 50  1  0  0  0  0
  8 30  2  0  0  0  0
  9 31  1  0  0  0  0
  9 54  1  0  0  0  0
 10 33  1  0  0  0  0
 10 55  1  0  0  0  0
 11 12  1  0  0  0  0
 11 13  1  0  0  0  0
 11 36  1  0  0  0  0
 12 14  1  0  0  0  0
 12 37  1  0  0  0  0
 13 19  2  0  0  0  0
 13 21  1  0  0  0  0
 14 38  1  0  0  0  0
 14 39  1  0  0  0  0
 15 16  2  0  0  0  0
 15 17  1  0  0  0  0
 16 20  1  0  0  0  0
 17 18  2  0  0  0  0
 17 40  1  0  0  0  0
 18 22  1  0  0  0  0
 18 23  1  0  0  0  0
 19 24  1  0  0  0  0
 19 41  1  0  0  0  0
 20 22  2  0  0  0  0
 20 42  1  0  0  0  0
 21 25  2  0  0  0  0
 21 43  1  0  0  0  0
 22 44  1  0  0  0  0
 23 27  2  0  0  0  0
 24 26  2  0  0  0  0
 25 26  1  0  0  0  0
 25 45  1  0  0  0  0
 27 30  1  0  0  0  0
 28 29  1  0  0  0  0
 28 30  1  0  0  0  0
 28 31  2  0  0  0  0
 29 32  2  0  0  0  0
 31 34  1  0  0  0  0
 32 33  1  0  0  0  0
 32 47  1  0  0  0  0
 33 34  2  0  0  0  0
 34 48  1  0  0  0  0
 35 51  1  0  0  0  0
 35 52  1  0  0  0  0
 35 53  1  0  0  0  0
M  END
> <PUBCHEM_COMPOUND_CID>
5467200

> <PUBCHEM_CONFORMER_RMSD>
0.8

> <PUBCHEM_CONFORMER_DIVERSEORDER>
12
42
84
50
59
21
103
9
69
61
34
39
88
29
97
49
101
23
85
73
18
41
78
62
2
57
17
87
94
44
90
16
67
93
20
30
24
100
89
53
26
72
45
35
19
80
92
13
63
27
91
102
83
32
22
36
58
15
77
43
25
60
51
37
66
33
81
82
96
79
8
76
28
71
98
6
47
3
86
74
64
46
99
55
70
5
56
48
54
31
52
14
75
7
65
1
11
10
40
38
68
95
4

> <PUBCHEM_MMFF94_PARTIAL_CHARGES>
48
1 -0.36
10 -0.53
11 0.42
12 0.28
13 -0.14
14 0.28
15 0.08
16 0.08
17 -0.15
18 0.03
19 -0.15
2 -0.36
20 -0.15
21 -0.15
22 -0.15
23 0.05
24 0.08
25 -0.15
26 0.08
27 0.09
28 0.09
29 0.08
3 -0.68
30 0.47
31 0.08
32 -0.15
33 0.08
34 -0.15
35 0.28
4 -0.16
40 0.15
41 0.15
42 0.15
43 0.15
44 0.15
45 0.15
46 0.4
47 0.15
48 0.15
49 0.45
5 -0.36
50 0.45
54 0.45
55 0.45
6 -0.53
7 -0.53
8 -0.57
9 -0.53

> <PUBCHEM_EFFECTIVE_ROTOR_COUNT>
4.8

> <PUBCHEM_PHARMACOPHORE_FEATURES>
16
1 1 acceptor
1 10 donor
1 2 acceptor
1 3 acceptor
1 3 donor
1 4 acceptor
1 5 acceptor
1 6 donor
1 7 donor
1 8 acceptor
1 9 donor
6 1 2 11 12 15 16 rings
6 13 19 21 24 25 26 rings
6 15 16 17 18 20 22 rings
6 28 29 31 32 33 34 rings
6 4 23 27 28 29 30 rings

> <PUBCHEM_HEAVY_ATOM_COUNT>
35

> <PUBCHEM_ATOM_DEF_STEREO_COUNT>
0

> <PUBCHEM_ATOM_UDEF_STEREO_COUNT>
2

> <PUBCHEM_BOND_DEF_STEREO_COUNT>
0

> <PUBCHEM_BOND_UDEF_STEREO_COUNT>
0

> <PUBCHEM_ISOTOPIC_ATOM_COUNT>
0

> <PUBCHEM_COMPONENT_COUNT>
1

> <PUBCHEM_CACTVS_TAUTO_COUNT>
72

> <PUBCHEM_CONFORMER_ID>
00536C400000000C

> <PUBCHEM_MMFF94_ENERGY>
122.0379

> <PUBCHEM_FEATURE_SELFOVERLAP>
81.278

> <PUBCHEM_SHAPE_FINGERPRINT>
10 15 18113901576249801825
10319926 262 17458351823153064675
10554248 39 17703509900401225270
11505856 67 17620473945459931862
11578821 258 17697302277976881032
12422481 6 18041272257904251628
12661589 4 11167935853868650660
12975358 362 18335152955608393093
13540713 4 18200890568485585318
13878862 14 18130216069901204222
14118638 360 17917423280841721415
14294032 229 18198344150830772558
14904385 31 18411133640939563053
15183329 4 15195289724364163608
15326921 28 16010413675535217245
15328684 2 15502384400371244429
15352257 5 10879995774356008121
15448158 71 18264767843520393140
15968369 153 18409163281906439869
16067689 68 15719657797587415296
17134984 74 11671781594467873068
18393751 57 18334861611070343987
20691028 202 18272941496606694729
21033648 144 18131912659023822151
21033648 29 18333733490211761095
21859007 373 18115580436000246356
23081809 10 16486971761397696427
23522609 53 14852757707649491503
23559900 14 17606695625707702559
2748736 6 18271800233201141408
312425 54 16443337672250284176
397830 11 18261403281704091987
4408954 64 17243274052163804280
44880568 143 18338514124326249253
504579 68 16343986892364570986
504843 32 18272363226600692959
5080951 261 17676479602051904739
5109719 28 18260558839472660937
5364581 5 17823426062037578741
6086070 43 16773510084012988802
6608658 132 16128383644869083363
6697151 62 17983580693643093926
6698420 124 18268723706369035689

> <PUBCHEM_SHAPE_MULTIPOLES>
661.59
22.19
3.6
2.16
8.31
0.56
-0.21
20.15
-3.44
-4.48
2.29
0.38
0.19
4.19

> <PUBCHEM_SHAPE_SELFOVERLAP>
1481.778

> <PUBCHEM_SHAPE_VOLUME>
347.8

> <PUBCHEM_COORDINATE_TYPE>
2
5
10

$$$$
