15558543
  -OEChem-09012010073D

 41 43  0     1  0  0  0  0  0999 V2000
   -0.9310    1.1053   -0.0821 O   0  0  0  0  0  0  0  0  0  0  0  0
   -2.4860    2.7506   -0.1186 O   0  0  0  0  0  0  0  0  0  0  0  0
   -4.9647    2.1773    0.4360 O   0  0  0  0  0  0  0  0  0  0  0  0
   -6.2810   -2.3386   -0.1864 O   0  0  0  0  0  0  0  0  0  0  0  0
    7.1988   -0.5649   -0.1928 O   0  0  0  0  0  0  0  0  0  0  0  0
   -0.6405   -0.2779    0.2230 C   0  0  1  0  0  0  0  0  0  0  0  0
   -1.5262   -1.1887   -0.6145 C   0  0  0  0  0  0  0  0  0  0  0  0
    0.8340   -0.5143   -0.0709 C   0  0  0  0  0  0  0  0  0  0  0  0
   -2.9518   -0.8161   -0.3409 C   0  0  0  0  0  0  0  0  0  0  0  0
    1.7244    0.3687    0.8031 C   0  0  0  0  0  0  0  0  0  0  0  0
   -3.2727    0.5208   -0.0753 C   0  0  0  0  0  0  0  0  0  0  0  0
   -2.2137    1.5578   -0.0843 C   0  0  0  0  0  0  0  0  0  0  0  0
    3.1870    0.1199    0.5370 C   0  0  0  0  0  0  0  0  0  0  0  0
   -3.9711   -1.7735   -0.3870 C   0  0  0  0  0  0  0  0  0  0  0  0
   -4.6002    0.8935    0.1595 C   0  0  0  0  0  0  0  0  0  0  0  0
   -5.2942   -1.4016   -0.1482 C   0  0  0  0  0  0  0  0  0  0  0  0
   -5.6074   -0.0712    0.1270 C   0  0  0  0  0  0  0  0  0  0  0  0
    3.8575   -0.8480    1.2699 C   0  0  0  0  0  0  0  0  0  0  0  0
    3.8387    0.8620   -0.4366 C   0  0  0  0  0  0  0  0  0  0  0  0
    5.2108   -1.0791    1.0234 C   0  0  0  0  0  0  0  0  0  0  0  0
    5.1920    0.6309   -0.6831 C   0  0  0  0  0  0  0  0  0  0  0  0
    5.8781   -0.3396    0.0469 C   0  0  0  0  0  0  0  0  0  0  0  0
    7.8193    0.2266   -1.2048 C   0  0  0  0  0  0  0  0  0  0  0  0
   -0.8287   -0.4285    1.2948 H   0  0  0  0  0  0  0  0  0  0  0  0
   -1.3386   -2.2375   -0.3579 H   0  0  0  0  0  0  0  0  0  0  0  0
   -1.3354   -1.0511   -1.6857 H   0  0  0  0  0  0  0  0  0  0  0  0
    1.0413   -0.2951   -1.1267 H   0  0  0  0  0  0  0  0  0  0  0  0
    1.0795   -1.5711    0.0932 H   0  0  0  0  0  0  0  0  0  0  0  0
    1.5108    0.1868    1.8645 H   0  0  0  0  0  0  0  0  0  0  0  0
    1.5055    1.4308    0.6350 H   0  0  0  0  0  0  0  0  0  0  0  0
   -3.7345   -2.8118   -0.6067 H   0  0  0  0  0  0  0  0  0  0  0  0
   -6.6382    0.2209    0.3140 H   0  0  0  0  0  0  0  0  0  0  0  0
    3.3462   -1.4306    2.0310 H   0  0  0  0  0  0  0  0  0  0  0  0
    3.3116    1.6184   -1.0114 H   0  0  0  0  0  0  0  0  0  0  0  0
    5.7399   -1.8367    1.5950 H   0  0  0  0  0  0  0  0  0  0  0  0
    5.6484    1.2404   -1.4556 H   0  0  0  0  0  0  0  0  0  0  0  0
   -4.1795    2.7319    0.5633 H   0  0  0  0  0  0  0  0  0  0  0  0
   -7.1327   -1.9077    0.0008 H   0  0  0  0  0  0  0  0  0  0  0  0
    7.8161    1.2900   -0.9424 H   0  0  0  0  0  0  0  0  0  0  0  0
    7.3764    0.0406   -2.1891 H   0  0  0  0  0  0  0  0  0  0  0  0
    8.8674   -0.0853   -1.2618 H   0  0  0  0  0  0  0  0  0  0  0  0
  1  6  1  0  0  0  0
  1 12  1  0  0  0  0
  2 12  2  0  0  0  0
  3 15  1  0  0  0  0
  3 37  1  0  0  0  0
  4 16  1  0  0  0  0
  4 38  1  0  0  0  0
  5 22  1  0  0  0  0
  5 23  1  0  0  0  0
  6  7  1  0  0  0  0
  6  8  1  0  0  0  0
  6 24  1  0  0  0  0
  7  9  1  0  0  0  0
  7 25  1  0  0  0  0
  7 26  1  0  0  0  0
  8 10  1  0  0  0  0
  8 27  1  0  0  0  0
  8 28  1  0  0  0  0
  9 11  2  0  0  0  0
  9 14  1  0  0  0  0
 10 13  1  0  0  0  0
 10 29  1  0  0  0  0
 10 30  1  0  0  0  0
 11 12  1  0  0  0  0
 11 15  1  0  0  0  0
 13 18  2  0  0  0  0
 13 19  1  0  0  0  0
 14 16  2  0  0  0  0
 14 31  1  0  0  0  0
 15 17  2  0  0  0  0
 16 17  1  0  0  0  0
 17 32  1  0  0  0  0
 18 20  1  0  0  0  0
 18 33  1  0  0  0  0
 19 21  2  0  0  0  0
 19 34  1  0  0  0  0
 20 22  2  0  0  0  0
 20 35  1  0  0  0  0
 21 22  1  0  0  0  0
 21 36  1  0  0  0  0
 23 39  1  0  0  0  0
 23 40  1  0  0  0  0
 23 41  1  0  0  0  0
M  END
> <PUBCHEM_COMPOUND_CID>
15558543

> <PUBCHEM_CONFORMER_RMSD>
0.8

> <PUBCHEM_CONFORMER_DIVERSEORDER>
1
16
19
10
12
13
3
7
14
20
9
11
18
4
5
17
8
2
15
6

> <PUBCHEM_MMFF94_PARTIAL_CHARGES>
30
1 -0.43
10 0.14
11 0.09
12 0.63
13 -0.14
14 -0.15
15 0.08
16 0.08
17 -0.15
18 -0.15
19 -0.15
2 -0.57
20 -0.15
21 -0.15
22 0.08
23 0.28
3 -0.53
31 0.15
32 0.15
33 0.15
34 0.15
35 0.15
36 0.15
37 0.45
38 0.45
4 -0.53
5 -0.36
6 0.28
7 0.14
9 -0.14

> <PUBCHEM_EFFECTIVE_ROTOR_COUNT>
4.6

> <PUBCHEM_PHARMACOPHORE_FEATURES>
7
1 2 acceptor
1 3 donor
1 4 donor
1 5 acceptor
6 1 6 7 9 11 12 rings
6 13 18 19 20 21 22 rings
6 9 11 14 15 16 17 rings

> <PUBCHEM_HEAVY_ATOM_COUNT>
23

> <PUBCHEM_ATOM_DEF_STEREO_COUNT>
0

> <PUBCHEM_ATOM_UDEF_STEREO_COUNT>
1

> <PUBCHEM_BOND_DEF_STEREO_COUNT>
0

> <PUBCHEM_BOND_UDEF_STEREO_COUNT>
0

> <PUBCHEM_ISOTOPIC_ATOM_COUNT>
0

> <PUBCHEM_COMPONENT_COUNT>
1

> <PUBCHEM_CACTVS_TAUTO_COUNT>
25

> <PUBCHEM_CONFORMER_ID>
00ED678F00000001

> <PUBCHEM_MMFF94_ENERGY>
73.9888

> <PUBCHEM_FEATURE_SELFOVERLAP>
35.549

> <PUBCHEM_SHAPE_FINGERPRINT>
10299344 5 18261111864173359866
10411042 1 18196089070595749279
10595046 47 18333449833586427072
10638233 991 17821736061241981820
10730089 173 18411420600578415484
10912923 1 18040428859286362184
11089746 13 10303808783315231746
11315181 36 18334015008269604125
11524674 6 16487255491010783327
11963148 33 18341040908488137751
12107183 9 17541086572554679592
12166972 35 18334297591353834196
12236239 1 18186519891211107444
12403259 415 17703498957061548562
13288520 33 18412543232653183007
13533116 47 17749381538903357226
13668630 136 17846505829243662702
13782708 43 17489581320240903791
14251764 18 18113617894240084506
14856354 85 18337394937110463543
14933364 13 18343302578768411264
15183329 4 18408321077716329426
15250474 111 18188193339103215378
15419008 47 17418088811367028224
1577012 14 18186518774672643336
17834072 33 18186517700856849416
17844677 252 18272653480009930360
18681886 176 18412260671171280328
18927931 339 18343579664383614695
21065198 48 18187078413053292346
21150785 3 17095522928646461598
21236236 1 18413387631797751937
21267235 1 18338237167517587115
21623969 137 16630533925326416902
220451 1 18333731291114321410
2297311 6 18272653449929094329
23035841 295 18409166627532442507
23081809 10 17967810527361458258
23198884 109 18040437685565519906
23402539 116 18408316688201646325
23522609 53 18190205445556189644
23536379 177 18410011027172610810
23559900 14 18341322400801979128
3004659 81 18411136953086724936
335352 9 18410568488833132781
34797466 226 17845940727859941372
3545911 37 18202001002187696966
4073 2 17895481431535545114
4214541 1 18411979143832139649
4325135 7 18334295370506991455
445580 167 18335138752171644356
497634 4 18113894948899045005
5104073 3 18342449361401967265
5265222 85 18129381656714088038
542803 24 17967531264134629746
59755656 215 17775289339894304918
59755656 520 17095243622438312666
636775 8 18262245528811939531
7495541 125 18272928353906698232
9996256 80 18410573972462026946

> <PUBCHEM_SHAPE_MULTIPOLES>
443.98
19.34
1.9
0.91
19.73
0.51
0.05
-3.62
-2.73
-3.51
-0.03
1.16
-0.1
-1.21

> <PUBCHEM_SHAPE_SELFOVERLAP>
963.986

> <PUBCHEM_SHAPE_VOLUME>
241.9

> <PUBCHEM_COORDINATE_TYPE>
2
5
10

$$$$
