5280896
  -OEChem-11202007363D

 39 39  0     1  0  0  0  0  0999 V2000
   -0.1461   -1.2388    1.2500 O   0  0  0  0  0  0  0  0  0  0  0  0
   -4.6354    1.1292   -0.6772 O   0  0  0  0  0  0  0  0  0  0  0  0
    4.4588    0.1375    1.4768 O   0  0  0  0  0  0  0  0  0  0  0  0
    4.4111   -1.5866   -0.0114 O   0  0  0  0  0  0  0  0  0  0  0  0
   -1.8087   -1.1821   -0.5359 C   0  0  0  0  0  0  0  0  0  0  0  0
   -0.8886   -0.3343    0.4202 C   0  0  1  0  0  0  0  0  0  0  0  0
   -2.7709   -0.2439   -1.2936 C   0  0  0  0  0  0  0  0  0  0  0  0
   -1.7108    0.6150    1.2928 C   0  0  0  0  0  0  0  0  0  0  0  0
   -2.6417   -2.2308    0.2522 C   0  0  0  0  0  0  0  0  0  0  0  0
   -0.9825   -1.9828   -1.5708 C   0  0  0  0  0  0  0  0  0  0  0  0
   -3.5388    0.6686   -0.3627 C   0  0  0  0  0  0  0  0  0  0  0  0
    0.1399    0.4707   -0.3362 C   0  0  0  0  0  0  0  0  0  0  0  0
   -2.9255    1.0601    0.9296 C   0  0  0  0  0  0  0  0  0  0  0  0
   -1.0978    1.0863    2.5869 C   0  0  0  0  0  0  0  0  0  0  0  0
    1.4637    0.2754   -0.2228 C   0  0  0  0  0  0  0  0  0  0  0  0
    2.5259    1.0124   -0.9149 C   0  0  0  0  0  0  0  0  0  0  0  0
    2.1010    2.0927   -1.8761 C   0  0  0  0  0  0  0  0  0  0  0  0
    3.8033    0.6619   -0.6636 C   0  0  0  0  0  0  0  0  0  0  0  0
    4.2431   -0.4104    0.2567 C   0  0  0  0  0  0  0  0  0  0  0  0
   -3.4995   -0.8348   -1.8627 H   0  0  0  0  0  0  0  0  0  0  0  0
   -2.2350    0.3899   -2.0096 H   0  0  0  0  0  0  0  0  0  0  0  0
   -3.2277   -1.7813    1.0595 H   0  0  0  0  0  0  0  0  0  0  0  0
   -3.3452   -2.7493   -0.4102 H   0  0  0  0  0  0  0  0  0  0  0  0
   -1.9994   -2.9982    0.6984 H   0  0  0  0  0  0  0  0  0  0  0  0
   -0.4417   -1.3263   -2.2605 H   0  0  0  0  0  0  0  0  0  0  0  0
   -0.2514   -2.6343   -1.0798 H   0  0  0  0  0  0  0  0  0  0  0  0
   -1.6327   -2.6186   -2.1834 H   0  0  0  0  0  0  0  0  0  0  0  0
   -0.2400    1.2451   -0.9977 H   0  0  0  0  0  0  0  0  0  0  0  0
   -3.4954    1.7406    1.5533 H   0  0  0  0  0  0  0  0  0  0  0  0
   -0.7434   -1.6025    1.9252 H   0  0  0  0  0  0  0  0  0  0  0  0
   -1.7200    1.8361    3.0877 H   0  0  0  0  0  0  0  0  0  0  0  0
   -0.1195    1.5436    2.4076 H   0  0  0  0  0  0  0  0  0  0  0  0
   -0.9715    0.2506    3.2821 H   0  0  0  0  0  0  0  0  0  0  0  0
    1.8087   -0.5064    0.4462 H   0  0  0  0  0  0  0  0  0  0  0  0
    2.9712    2.5660   -2.3444 H   0  0  0  0  0  0  0  0  0  0  0  0
    1.5428    2.8803   -1.3590 H   0  0  0  0  0  0  0  0  0  0  0  0
    1.4831    1.6817   -2.6815 H   0  0  0  0  0  0  0  0  0  0  0  0
    4.6137    1.1839   -1.1655 H   0  0  0  0  0  0  0  0  0  0  0  0
    4.7609   -0.5291    2.1301 H   0  0  0  0  0  0  0  0  0  0  0  0
  1  6  1  0  0  0  0
  1 30  1  0  0  0  0
  2 11  2  0  0  0  0
  3 19  1  0  0  0  0
  3 39  1  0  0  0  0
  4 19  2  0  0  0  0
  5  6  1  0  0  0  0
  5  7  1  0  0  0  0
  5  9  1  0  0  0  0
  5 10  1  0  0  0  0
  6  8  1  0  0  0  0
  6 12  1  0  0  0  0
  7 11  1  0  0  0  0
  7 20  1  0  0  0  0
  7 21  1  0  0  0  0
  8 13  2  0  0  0  0
  8 14  1  0  0  0  0
  9 22  1  0  0  0  0
  9 23  1  0  0  0  0
  9 24  1  0  0  0  0
 10 25  1  0  0  0  0
 10 26  1  0  0  0  0
 10 27  1  0  0  0  0
 11 13  1  0  0  0  0
 12 15  2  0  0  0  0
 12 28  1  0  0  0  0
 13 29  1  0  0  0  0
 14 31  1  0  0  0  0
 14 32  1  0  0  0  0
 14 33  1  0  0  0  0
 15 16  1  0  0  0  0
 15 34  1  0  0  0  0
 16 17  1  0  0  0  0
 16 18  2  0  0  0  0
 17 35  1  0  0  0  0
 17 36  1  0  0  0  0
 17 37  1  0  0  0  0
 18 19  1  0  0  0  0
 18 38  1  0  0  0  0
M  END
> <PUBCHEM_COMPOUND_CID>
5280896

> <PUBCHEM_CONFORMER_RMSD>
0.6

> <PUBCHEM_CONFORMER_DIVERSEORDER>
1
11
25
10
18
7
24
17
8
20
19
21
4
12
13
22
9
23
14
3
2
5
16
26
15
6

> <PUBCHEM_MMFF94_PARTIAL_CHARGES>
22
1 -0.68
11 0.49
12 -0.29
13 -0.14
14 0.14
15 -0.15
16 -0.14
17 0.14
18 -0.14
19 0.71
2 -0.57
28 0.15
29 0.15
3 -0.65
30 0.4
34 0.15
38 0.15
39 0.5
4 -0.57
6 0.56
7 0.06
8 -0.28

> <PUBCHEM_EFFECTIVE_ROTOR_COUNT>
3.6

> <PUBCHEM_PHARMACOPHORE_FEATURES>
9
1 1 acceptor
1 1 donor
1 17 hydrophobe
1 2 acceptor
1 3 acceptor
1 4 acceptor
3 3 4 19 anion
3 5 9 10 hydrophobe
6 5 6 7 8 11 13 rings

> <PUBCHEM_HEAVY_ATOM_COUNT>
19

> <PUBCHEM_ATOM_DEF_STEREO_COUNT>
1

> <PUBCHEM_ATOM_UDEF_STEREO_COUNT>
0

> <PUBCHEM_BOND_DEF_STEREO_COUNT>
2

> <PUBCHEM_BOND_UDEF_STEREO_COUNT>
0

> <PUBCHEM_ISOTOPIC_ATOM_COUNT>
0

> <PUBCHEM_COMPONENT_COUNT>
1

> <PUBCHEM_CACTVS_TAUTO_COUNT>
5

> <PUBCHEM_CONFORMER_ID>
0050948000000001

> <PUBCHEM_MMFF94_ENERGY>
53.1656

> <PUBCHEM_FEATURE_SELFOVERLAP>
45.728

> <PUBCHEM_SHAPE_FINGERPRINT>
10062212 137 18336539503646076926
10369192 42 15578413594070819772
11315181 36 18201725072414705096
11370993 70 17632291255526709374
11578080 2 18197197347044319301
11759241 127 14764625313568862080
12011746 2 13767922425763412919
12592029 89 18187083906190110235
128620 24 12175618469336406992
13024252 1 15792012341917196815
13224815 77 13398638246945241724
13533116 47 17703508779657522838
13583140 156 17823718514433590617
13675066 3 18334576854078872352
14004511 7 18186799188386243532
14115302 16 18343864432887922116
15295992 7 17240490225159226389
15309172 13 13479124718322327825
15375358 24 16415480454122762956
16945 1 18264504918027093343
17349148 13 18131356284448572438
17492 89 18263648527440244846
17834072 14 16917064477575678104
18186145 218 16660636397273213500
187816 3 17560797719612076621
192875 21 18272092681898693856
19489759 90 17203607047797113464
19784866 170 12901816161429305327
20279233 1 16487262075237449132
20645476 183 18335974316552764543
20645477 70 17821450166817503134
21339142 149 16845304812750222465
21486144 27 16443629124462409708
23402539 116 17203322269837974177
23419403 2 16628805462434902977
23557571 272 15697731341085493472
23559900 14 17346598578223898332
2838139 119 17750218241609216693
633830 44 16515685567396257148
6913067 236 14548440398140545548
74978 22 17822579429340827604
7615 1 18268724951113491772
81228 2 16629148535789854897
9971528 1 18334855001067929876

> <PUBCHEM_SHAPE_MULTIPOLES>
367.53
8.09
1.93
1.81
6.53
0.73
0.12
-0.29
0.36
-1.13
-0.28
0.46
-0.73
-0.75

> <PUBCHEM_SHAPE_SELFOVERLAP>
753.043

> <PUBCHEM_SHAPE_VOLUME>
210.9

> <PUBCHEM_COORDINATE_TYPE>
2
5
10

$$$$
