188999
  -OEChem-09132023113D

 51 55  0     1  0  0  0  0  0999 V2000
   -4.4442    0.5181   -0.8861 O   0  0  0  0  0  0  0  0  0  0  0  0
    2.4898    0.4497    2.9844 O   0  0  0  0  0  0  0  0  0  0  0  0
   -1.7585   -2.6024    1.2680 O   0  0  0  0  0  0  0  0  0  0  0  0
   -2.9151   -3.3424   -0.5959 O   0  0  0  0  0  0  0  0  0  0  0  0
    0.0764    2.1626    0.0431 N   0  0  1  0  0  0  0  0  0  0  0  0
    3.4273   -0.8284    1.2571 N   0  0  0  0  0  0  0  0  0  0  0  0
    0.4381    0.9423    0.7708 C   0  0  2  0  0  0  0  0  0  0  0  0
    1.9663    0.9269    0.6134 C   0  0  2  0  0  0  0  0  0  0  0  0
   -0.3622   -0.2641    0.2692 C   0  0  0  0  0  0  0  0  0  0  0  0
   -2.1986    1.3551   -0.3282 C   0  0  2  0  0  0  0  0  0  0  0  0
   -1.8668    0.0348    0.4255 C   0  0  1  0  0  0  0  0  0  0  0  0
    2.3418    2.4244    0.6008 C   0  0  0  0  0  0  0  0  0  0  0  0
   -1.3331    2.5133    0.2028 C   0  0  0  0  0  0  0  0  0  0  0  0
    1.0093    3.1778    0.5203 C   0  0  0  0  0  0  0  0  0  0  0  0
    2.5243    0.1843   -0.5762 C   0  0  0  0  0  0  0  0  0  0  0  0
   -3.7207    1.5904   -0.2450 C   0  0  1  0  0  0  0  0  0  0  0  0
    2.6339    0.1869    1.7997 C   0  0  0  0  0  0  0  0  0  0  0  0
   -2.8032   -1.0396   -0.0464 C   0  0  0  0  0  0  0  0  0  0  0  0
    3.3667   -0.8330   -0.1309 C   0  0  0  0  0  0  0  0  0  0  0  0
    2.3297    0.3786   -1.9335 C   0  0  0  0  0  0  0  0  0  0  0  0
   -4.1706    2.8774   -0.9290 C   0  0  0  0  0  0  0  0  0  0  0  0
   -3.9610   -0.7440   -0.6523 C   0  0  0  0  0  0  0  0  0  0  0  0
    4.0268   -1.6878   -0.9916 C   0  0  0  0  0  0  0  0  0  0  0  0
   -2.5165   -2.4609    0.1505 C   0  0  0  0  0  0  0  0  0  0  0  0
    2.9860   -0.4740   -2.8271 C   0  0  0  0  0  0  0  0  0  0  0  0
    3.8264   -1.4995   -2.3594 C   0  0  0  0  0  0  0  0  0  0  0  0
   -1.3922   -3.9466    1.5961 C   0  0  0  0  0  0  0  0  0  0  0  0
    0.1952    1.0769    1.8370 H   0  0  0  0  0  0  0  0  0  0  0  0
   -0.0442   -1.1365    0.8448 H   0  0  0  0  0  0  0  0  0  0  0  0
   -0.1482   -0.4811   -0.7840 H   0  0  0  0  0  0  0  0  0  0  0  0
   -1.9469    1.2089   -1.3915 H   0  0  0  0  0  0  0  0  0  0  0  0
   -2.0678    0.1845    1.4970 H   0  0  0  0  0  0  0  0  0  0  0  0
    2.9672    2.6832   -0.2623 H   0  0  0  0  0  0  0  0  0  0  0  0
    2.8889    2.7288    1.5005 H   0  0  0  0  0  0  0  0  0  0  0  0
   -1.5331    3.4217   -0.3754 H   0  0  0  0  0  0  0  0  0  0  0  0
   -1.5803    2.7241    1.2511 H   0  0  0  0  0  0  0  0  0  0  0  0
    0.7331    3.5478    1.5156 H   0  0  0  0  0  0  0  0  0  0  0  0
    1.0721    4.0305   -0.1628 H   0  0  0  0  0  0  0  0  0  0  0  0
   -4.0425    1.6281    0.8045 H   0  0  0  0  0  0  0  0  0  0  0  0
    3.9850   -1.4799    1.7965 H   0  0  0  0  0  0  0  0  0  0  0  0
    1.6845    1.1672   -2.3047 H   0  0  0  0  0  0  0  0  0  0  0  0
   -3.8410    2.9002   -1.9735 H   0  0  0  0  0  0  0  0  0  0  0  0
   -5.2645    2.9395   -0.9436 H   0  0  0  0  0  0  0  0  0  0  0  0
   -3.7886    3.7655   -0.4184 H   0  0  0  0  0  0  0  0  0  0  0  0
   -4.6630   -1.4734   -1.0349 H   0  0  0  0  0  0  0  0  0  0  0  0
    4.6780   -2.4744   -0.6279 H   0  0  0  0  0  0  0  0  0  0  0  0
    2.8460   -0.3428   -3.8968 H   0  0  0  0  0  0  0  0  0  0  0  0
    4.3264   -2.1493   -3.0727 H   0  0  0  0  0  0  0  0  0  0  0  0
   -0.7904   -3.9216    2.5083 H   0  0  0  0  0  0  0  0  0  0  0  0
   -0.7922   -4.3819    0.7912 H   0  0  0  0  0  0  0  0  0  0  0  0
   -2.2869   -4.5486    1.7809 H   0  0  0  0  0  0  0  0  0  0  0  0
  1 16  1  0  0  0  0
  1 22  1  0  0  0  0
  2 17  2  0  0  0  0
  3 24  1  0  0  0  0
  3 27  1  0  0  0  0
  4 24  2  0  0  0  0
  5  7  1  0  0  0  0
  5 13  1  0  0  0  0
  5 14  1  0  0  0  0
  6 17  1  0  0  0  0
  6 19  1  0  0  0  0
  6 40  1  0  0  0  0
  7  8  1  0  0  0  0
  7  9  1  0  0  0  0
  7 28  1  0  0  0  0
  8 12  1  0  0  0  0
  8 15  1  0  0  0  0
  8 17  1  0  0  0  0
  9 11  1  0  0  0  0
  9 29  1  0  0  0  0
  9 30  1  0  0  0  0
 10 11  1  0  0  0  0
 10 13  1  0  0  0  0
 10 16  1  0  0  0  0
 10 31  1  0  0  0  0
 11 18  1  0  0  0  0
 11 32  1  0  0  0  0
 12 14  1  0  0  0  0
 12 33  1  0  0  0  0
 12 34  1  0  0  0  0
 13 35  1  0  0  0  0
 13 36  1  0  0  0  0
 14 37  1  0  0  0  0
 14 38  1  0  0  0  0
 15 19  1  0  0  0  0
 15 20  2  0  0  0  0
 16 21  1  0  0  0  0
 16 39  1  0  0  0  0
 18 22  2  0  0  0  0
 18 24  1  0  0  0  0
 19 23  2  0  0  0  0
 20 25  1  0  0  0  0
 20 41  1  0  0  0  0
 21 42  1  0  0  0  0
 21 43  1  0  0  0  0
 21 44  1  0  0  0  0
 22 45  1  0  0  0  0
 23 26  1  0  0  0  0
 23 46  1  0  0  0  0
 25 26  2  0  0  0  0
 25 47  1  0  0  0  0
 26 48  1  0  0  0  0
 27 49  1  0  0  0  0
 27 50  1  0  0  0  0
 27 51  1  0  0  0  0
M  END
> <PUBCHEM_COMPOUND_CID>
188999

> <PUBCHEM_CONFORMER_RMSD>
0.8

> <PUBCHEM_CONFORMER_DIVERSEORDER>
1
4
2
3

> <PUBCHEM_MMFF94_PARTIAL_CHARGES>
29
1 -0.36
11 0.14
13 0.27
14 0.27
15 -0.14
16 0.28
17 0.57
18 -0.12
19 0.12
2 -0.57
20 -0.15
22 -0.07
23 -0.15
24 0.71
25 -0.15
26 -0.15
27 0.28
3 -0.43
4 -0.57
40 0.37
41 0.15
45 0.15
46 0.15
47 0.15
48 0.15
5 -0.81
6 -0.55
7 0.27
8 0.2

> <PUBCHEM_EFFECTIVE_ROTOR_COUNT>
3.4

> <PUBCHEM_PHARMACOPHORE_FEATURES>
10
1 1 acceptor
1 2 acceptor
1 4 acceptor
1 5 cation
1 6 donor
5 5 7 8 12 14 rings
5 6 8 15 17 19 rings
6 1 10 11 16 18 22 rings
6 15 19 20 23 25 26 rings
6 5 7 9 10 11 13 rings

> <PUBCHEM_HEAVY_ATOM_COUNT>
27

> <PUBCHEM_ATOM_DEF_STEREO_COUNT>
5

> <PUBCHEM_ATOM_UDEF_STEREO_COUNT>
0

> <PUBCHEM_BOND_DEF_STEREO_COUNT>
0

> <PUBCHEM_BOND_UDEF_STEREO_COUNT>
0

> <PUBCHEM_ISOTOPIC_ATOM_COUNT>
0

> <PUBCHEM_COMPONENT_COUNT>
1

> <PUBCHEM_CACTVS_TAUTO_COUNT>
2

> <PUBCHEM_CONFORMER_ID>
0002E24700000001

> <PUBCHEM_MMFF94_ENERGY>
80.9054

> <PUBCHEM_FEATURE_SELFOVERLAP>
50.945

> <PUBCHEM_SHAPE_FINGERPRINT>
10369192 42 12830649240498509910
11488393 25 17913232003152154372
11582403 64 16184590571807433808
12363563 72 17703521982291623156
12553582 1 18340786852750143722
13544653 18 16916511333401735420
13583140 156 15625118588433896755
14022347 108 18408326579369177233
14223421 5 18124029302296840033
14251757 5 18336845103480047686
14932701 244 16521073307653678006
15420108 30 16549205000193748225
15635459 17 17979362180642373211
15664445 248 17324379883251488765
16752209 62 18261951856396256753
20600515 1 18267563772134569544
20771845 171 17388827375404504565
20905425 154 17904195180605983881
21133410 32 17027448925914459298
21197605 99 13936830952348477282
21781051 124 18187376415734350331
23184049 29 18191295177368489009
23557571 272 18412543245153372448
23559900 14 18272366443446209876
25222932 49 16964063363914261794
3298306 158 18191299369852662333
394071 54 16605779838140739747
4280585 95 18411141295414660492
463206 1 18266180517655546234
5309563 4 17111283577664736315
6823239 73 18343025531586322172
7399639 24 17553471883884088945
9709674 26 18270958050528501701

> <PUBCHEM_SHAPE_MULTIPOLES>
522.21
8.07
3.88
2.06
1.87
1.62
-0.12
1.17
-3.44
3.26
0.99
-2.69
0.6
1.94

> <PUBCHEM_SHAPE_SELFOVERLAP>
1153.741

> <PUBCHEM_SHAPE_VOLUME>
279.9

> <PUBCHEM_COORDINATE_TYPE>
2
5
10

$$$$
