45359677
  -OEChem-09132023153D

 83 87  0     1  0  0  0  0  0999 V2000
   -3.6291    1.6462    2.4750 O   0  0  0  0  0  0  0  0  0  0  0  0
   -4.9037   -3.0268    0.3721 O   0  0  0  0  0  0  0  0  0  0  0  0
    2.9713   -1.9444    1.4575 O   0  0  0  0  0  0  0  0  0  0  0  0
    4.6181    2.8169    0.0789 O   0  0  0  0  0  0  0  0  0  0  0  0
    3.5739    1.9227   -1.7393 O   0  0  0  0  0  0  0  0  0  0  0  0
   -0.7891    1.3918   -0.0285 C   0  0  2  0  0  0  0  0  0  0  0  0
   -1.5570    0.3241   -0.8909 C   0  0  1  0  0  0  0  0  0  0  0  0
   -3.0996    0.5931   -1.1415 C   0  0  2  0  0  0  0  0  0  0  0  0
    0.5558    0.6731    0.5686 C   0  0  1  0  0  0  0  0  0  0  0  0
   -3.8722    0.6739    0.2559 C   0  0  2  0  0  0  0  0  0  0  0  0
   -1.7464    1.9390    1.0587 C   0  0  0  0  0  0  0  0  0  0  0  0
   -2.8962    1.0009    1.4283 C   0  0  1  0  0  0  0  0  0  0  0  0
    1.3242   -0.0341   -0.5749 C   0  0  0  0  0  0  0  0  0  0  0  0
   -4.8094   -0.5817    0.5704 C   0  0  0  0  0  0  0  0  0  0  0  0
    2.8163   -0.3903   -0.4263 C   0  0  1  0  0  0  0  0  0  0  0  0
   -0.7051   -0.0333   -2.1199 C   0  0  0  0  0  0  0  0  0  0  0  0
    1.4792    1.7286    1.2502 C   0  0  0  0  0  0  0  0  0  0  0  0
    3.6310    0.6856    0.3569 C   0  0  1  0  0  0  0  0  0  0  0  0
   -3.6892   -0.5099   -2.0616 C   0  0  0  0  0  0  0  0  0  0  0  0
    2.8834    1.2274    1.5887 C   0  0  0  0  0  0  0  0  0  0  0  0
   -0.3449    2.6284   -0.8837 C   0  0  0  0  0  0  0  0  0  0  0  0
    0.7341   -0.2829   -1.7664 C   0  0  0  0  0  0  0  0  0  0  0  0
   -4.1178   -1.8732    0.0665 C   0  0  2  0  0  0  0  0  0  0  0  0
   -3.3615    1.9163   -1.9019 C   0  0  0  0  0  0  0  0  0  0  0  0
    3.1649   -1.8486    0.0462 C   0  0  1  0  0  0  0  0  0  0  0  0
   -3.8091   -1.8869   -1.4286 C   0  0  0  0  0  0  0  0  0  0  0  0
    0.1872   -0.3790    1.6472 C   0  0  0  0  0  0  0  0  0  0  0  0
    5.0146    0.1523    0.8083 C   0  0  0  0  0  0  0  0  0  0  0  0
    4.6714   -2.1389   -0.2823 C   0  0  1  0  0  0  0  0  0  0  0  0
   -6.2091   -0.3873   -0.0732 C   0  0  0  0  0  0  0  0  0  0  0  0
   -5.1225   -0.7620    2.0824 C   0  0  0  0  0  0  0  0  0  0  0  0
    5.5719   -0.8894   -0.1558 C   0  0  0  0  0  0  0  0  0  0  0  0
    3.9190    1.8533   -0.5690 C   0  0  0  0  0  0  0  0  0  0  0  0
    2.2758   -2.9175   -0.6115 C   0  0  0  0  0  0  0  0  0  0  0  0
    5.2699   -3.2874    0.5434 C   0  0  0  0  0  0  0  0  0  0  0  0
   -1.5684   -0.6019   -0.3051 H   0  0  0  0  0  0  0  0  0  0  0  0
   -4.5619    1.5301    0.2042 H   0  0  0  0  0  0  0  0  0  0  0  0
   -2.1943    2.8893    0.7366 H   0  0  0  0  0  0  0  0  0  0  0  0
   -1.1917    2.2163    1.9624 H   0  0  0  0  0  0  0  0  0  0  0  0
   -2.4945    0.0716    1.8387 H   0  0  0  0  0  0  0  0  0  0  0  0
    3.2007   -0.3813   -1.4598 H   0  0  0  0  0  0  0  0  0  0  0  0
   -1.0742   -0.9568   -2.5780 H   0  0  0  0  0  0  0  0  0  0  0  0
   -0.7571    0.7477   -2.8855 H   0  0  0  0  0  0  0  0  0  0  0  0
    1.6115    2.6116    0.6198 H   0  0  0  0  0  0  0  0  0  0  0  0
    1.0154    2.0921    2.1751 H   0  0  0  0  0  0  0  0  0  0  0  0
   -4.6798   -0.2069   -2.4155 H   0  0  0  0  0  0  0  0  0  0  0  0
   -3.1231   -0.5925   -2.9968 H   0  0  0  0  0  0  0  0  0  0  0  0
    2.8166    0.4577    2.3650 H   0  0  0  0  0  0  0  0  0  0  0  0
    3.4373    2.0498    2.0600 H   0  0  0  0  0  0  0  0  0  0  0  0
    0.5410    2.4309   -1.4945 H   0  0  0  0  0  0  0  0  0  0  0  0
   -0.1099    3.4868   -0.2433 H   0  0  0  0  0  0  0  0  0  0  0  0
   -1.1121    2.9762   -1.5722 H   0  0  0  0  0  0  0  0  0  0  0  0
    1.3199   -0.7287   -2.5678 H   0  0  0  0  0  0  0  0  0  0  0  0
   -3.1774   -1.9956    0.6184 H   0  0  0  0  0  0  0  0  0  0  0  0
   -2.7728    1.9774   -2.8225 H   0  0  0  0  0  0  0  0  0  0  0  0
   -4.4167    1.9993   -2.1916 H   0  0  0  0  0  0  0  0  0  0  0  0
   -3.1601    2.7984   -1.2905 H   0  0  0  0  0  0  0  0  0  0  0  0
   -4.5685   -2.4609   -1.9755 H   0  0  0  0  0  0  0  0  0  0  0  0
   -2.8749   -2.4429   -1.5804 H   0  0  0  0  0  0  0  0  0  0  0  0
   -0.3861   -1.2195    1.2470 H   0  0  0  0  0  0  0  0  0  0  0  0
    1.0635   -0.8138    2.1256 H   0  0  0  0  0  0  0  0  0  0  0  0
   -0.3837    0.0688    2.4658 H   0  0  0  0  0  0  0  0  0  0  0  0
    4.9400   -0.3098    1.8013 H   0  0  0  0  0  0  0  0  0  0  0  0
    5.7581    0.9494    0.9239 H   0  0  0  0  0  0  0  0  0  0  0  0
    4.7339   -2.4478   -1.3356 H   0  0  0  0  0  0  0  0  0  0  0  0
   -6.7148    0.4823    0.3640 H   0  0  0  0  0  0  0  0  0  0  0  0
   -6.1881   -0.2231   -1.1485 H   0  0  0  0  0  0  0  0  0  0  0  0
   -6.8525   -1.2572    0.1029 H   0  0  0  0  0  0  0  0  0  0  0  0
   -4.2299   -1.0083    2.6657 H   0  0  0  0  0  0  0  0  0  0  0  0
   -5.5834    0.1372    2.5047 H   0  0  0  0  0  0  0  0  0  0  0  0
   -5.8345   -1.5797    2.2486 H   0  0  0  0  0  0  0  0  0  0  0  0
    6.5870   -1.1686    0.1515 H   0  0  0  0  0  0  0  0  0  0  0  0
    5.6800   -0.4291   -1.1468 H   0  0  0  0  0  0  0  0  0  0  0  0
   -3.0289    1.7506    3.2330 H   0  0  0  0  0  0  0  0  0  0  0  0
    1.2282   -2.8028   -0.3130 H   0  0  0  0  0  0  0  0  0  0  0  0
    2.3421   -2.8828   -1.7034 H   0  0  0  0  0  0  0  0  0  0  0  0
    2.5580   -3.9254   -0.2893 H   0  0  0  0  0  0  0  0  0  0  0  0
    5.3487   -3.0236    1.6032 H   0  0  0  0  0  0  0  0  0  0  0  0
    6.2782   -3.5281    0.1881 H   0  0  0  0  0  0  0  0  0  0  0  0
    4.6724   -4.1993    0.4585 H   0  0  0  0  0  0  0  0  0  0  0  0
   -4.4011   -3.8083    0.0850 H   0  0  0  0  0  0  0  0  0  0  0  0
    3.0031   -2.8807    1.7153 H   0  0  0  0  0  0  0  0  0  0  0  0
    4.8145    3.5811   -0.5037 H   0  0  0  0  0  0  0  0  0  0  0  0
  1 12  1  0  0  0  0
  1 74  1  0  0  0  0
  2 23  1  0  0  0  0
  2 81  1  0  0  0  0
  3 25  1  0  0  0  0
  3 82  1  0  0  0  0
  4 33  1  0  0  0  0
  4 83  1  0  0  0  0
  5 33  2  0  0  0  0
  6  7  1  0  0  0  0
  6  9  1  0  0  0  0
  6 11  1  0  0  0  0
  6 21  1  0  0  0  0
  7  8  1  0  0  0  0
  7 16  1  0  0  0  0
  7 36  1  0  0  0  0
  8 10  1  0  0  0  0
  8 19  1  0  0  0  0
  8 24  1  0  0  0  0
  9 13  1  0  0  0  0
  9 17  1  0  0  0  0
  9 27  1  0  0  0  0
 10 12  1  0  0  0  0
 10 14  1  0  0  0  0
 10 37  1  0  0  0  0
 11 12  1  0  0  0  0
 11 38  1  0  0  0  0
 11 39  1  0  0  0  0
 12 40  1  0  0  0  0
 13 15  1  0  0  0  0
 13 22  2  0  0  0  0
 14 23  1  0  0  0  0
 14 30  1  0  0  0  0
 14 31  1  0  0  0  0
 15 18  1  0  0  0  0
 15 25  1  0  0  0  0
 15 41  1  0  0  0  0
 16 22  1  0  0  0  0
 16 42  1  0  0  0  0
 16 43  1  0  0  0  0
 17 20  1  0  0  0  0
 17 44  1  0  0  0  0
 17 45  1  0  0  0  0
 18 20  1  0  0  0  0
 18 28  1  0  0  0  0
 18 33  1  0  0  0  0
 19 26  1  0  0  0  0
 19 46  1  0  0  0  0
 19 47  1  0  0  0  0
 20 48  1  0  0  0  0
 20 49  1  0  0  0  0
 21 50  1  0  0  0  0
 21 51  1  0  0  0  0
 21 52  1  0  0  0  0
 22 53  1  0  0  0  0
 23 26  1  0  0  0  0
 23 54  1  0  0  0  0
 24 55  1  0  0  0  0
 24 56  1  0  0  0  0
 24 57  1  0  0  0  0
 25 29  1  0  0  0  0
 25 34  1  0  0  0  0
 26 58  1  0  0  0  0
 26 59  1  0  0  0  0
 27 60  1  0  0  0  0
 27 61  1  0  0  0  0
 27 62  1  0  0  0  0
 28 32  1  0  0  0  0
 28 63  1  0  0  0  0
 28 64  1  0  0  0  0
 29 32  1  0  0  0  0
 29 35  1  0  0  0  0
 29 65  1  0  0  0  0
 30 66  1  0  0  0  0
 30 67  1  0  0  0  0
 30 68  1  0  0  0  0
 31 69  1  0  0  0  0
 31 70  1  0  0  0  0
 31 71  1  0  0  0  0
 32 72  1  0  0  0  0
 32 73  1  0  0  0  0
 34 75  1  0  0  0  0
 34 76  1  0  0  0  0
 34 77  1  0  0  0  0
 35 78  1  0  0  0  0
 35 79  1  0  0  0  0
 35 80  1  0  0  0  0
M  END
> <PUBCHEM_COMPOUND_CID>
45359677

> <PUBCHEM_CONFORMER_RMSD>
0.8

> <PUBCHEM_CONFORMER_DIVERSEORDER>
2
6
5
4
3
7
1

> <PUBCHEM_MMFF94_PARTIAL_CHARGES>
20
1 -0.68
12 0.28
13 -0.28
15 0.14
16 0.14
18 0.06
2 -0.68
22 -0.29
23 0.28
25 0.28
3 -0.68
33 0.66
4 -0.65
5 -0.57
53 0.15
74 0.4
81 0.4
82 0.4
83 0.5
9 0.14

> <PUBCHEM_EFFECTIVE_ROTOR_COUNT>
3.6

> <PUBCHEM_PHARMACOPHORE_FEATURES>
15
1 1 acceptor
1 1 donor
1 2 acceptor
1 2 donor
1 3 acceptor
1 3 donor
1 4 acceptor
1 5 acceptor
3 14 30 31 hydrophobe
3 4 5 33 anion
6 15 18 25 28 29 32 rings
6 6 7 8 10 11 12 rings
6 6 7 9 13 16 22 rings
6 8 10 14 19 23 26 rings
6 9 13 15 17 18 20 rings

> <PUBCHEM_HEAVY_ATOM_COUNT>
35

> <PUBCHEM_ATOM_DEF_STEREO_COUNT>
8

> <PUBCHEM_ATOM_UDEF_STEREO_COUNT>
3

> <PUBCHEM_BOND_DEF_STEREO_COUNT>
0

> <PUBCHEM_BOND_UDEF_STEREO_COUNT>
0

> <PUBCHEM_ISOTOPIC_ATOM_COUNT>
0

> <PUBCHEM_COMPONENT_COUNT>
1

> <PUBCHEM_CACTVS_TAUTO_COUNT>
1

> <PUBCHEM_CONFORMER_ID>
02B4223D00000002

> <PUBCHEM_MMFF94_ENERGY>
174.6738

> <PUBCHEM_FEATURE_SELFOVERLAP>
76.273

> <PUBCHEM_SHAPE_FINGERPRINT>
10675989 125 16176215368062598460
10928967 22 18202277030719135230
11135609 12 18334575720017530579
11552529 35 17844800585145538175
11578080 2 12685669922071603582
11763715 3 18188508899124717716
12422481 6 17059781009551500846
12633257 1 16773793706019127191
12788726 201 17346330283927112257
13224815 77 18341892982764416693
13544653 18 18341607148854589821
13583140 156 18342446024365501317
13782708 43 17531244990568373082
14341114 176 18272373087638881793
14849402 71 18201715211333889640
14856354 85 17417816205038321333
14950920 106 18343305851217116379
14955137 171 17702667640851911366
15001296 14 18260543459100289835
15238133 3 16200159759450963315
15537594 2 18059858406222166717
15788980 27 18342168942981838533
15799311 1 18335999626388780174
17349148 13 16805327686418608548
17844677 252 18261393325616419980
1813 80 17894632556285921957
19319366 153 18200307861892870964
19377110 9 18202281429039556408
21033650 10 16588862352734266421
22393880 68 17458898245655300621
23559900 14 18262787476453696916
249057 3 18120366558281416165
312423 11 18343587321961987644
34797466 226 17095527326376429565
350125 39 18412544340928942222
3633792 109 18338790123424761813
392239 28 18343587334710239643
460360 51 17988085461168460429
46194498 28 17821731645883602708
508706 21 17095810931952129683
5104073 3 17988916722566922130
7237137 82 12757449257994175185

> <PUBCHEM_SHAPE_MULTIPOLES>
690.94
12.88
3.09
1.97
0.76
1.02
-0.01
5.77
1.99
-2.17
0.03
1.76
-0.44
-0.37

> <PUBCHEM_SHAPE_SELFOVERLAP>
1472.432

> <PUBCHEM_SHAPE_VOLUME>
379.5

> <PUBCHEM_COORDINATE_TYPE>
2
5
10

$$$$
