12314285
  -OEChem-09172015503D

 53 55  0     1  0  0  0  0  0999 V2000
    4.0042    1.3904   -1.4576 O   0  0  0  0  0  0  0  0  0  0  0  0
    0.6755   -0.6996    0.0013 C   0  0  1  0  0  0  0  0  0  0  0  0
    1.7373    0.4677    0.0237 C   0  0  2  0  0  0  0  0  0  0  0  0
   -0.6132   -0.1460   -0.7408 C   0  0  2  0  0  0  0  0  0  0  0  0
    3.2201    0.0824    0.3813 C   0  0  1  0  0  0  0  0  0  0  0  0
    1.2564   -1.8956   -0.7940 C   0  0  0  0  0  0  0  0  0  0  0  0
    1.1858    1.6764    0.8090 C   0  0  0  0  0  0  0  0  0  0  0  0
    3.6378   -1.1807   -0.4110 C   0  0  0  0  0  0  0  0  0  0  0  0
   -1.1303    1.1281   -0.0852 C   0  0  0  0  0  0  0  0  0  0  0  0
    2.6393   -2.3266   -0.3177 C   0  0  0  0  0  0  0  0  0  0  0  0
   -0.1068    2.2026    0.1834 C   0  0  0  0  0  0  0  0  0  0  0  0
   -1.7135   -1.2153   -0.9460 C   0  0  0  0  0  0  0  0  0  0  0  0
    0.2835   -1.1873    1.4212 C   0  0  0  0  0  0  0  0  0  0  0  0
    4.1701    1.2255   -0.0698 C   0  0  0  0  0  0  0  0  0  0  0  0
    3.4917   -0.1284    1.8835 C   0  0  0  0  0  0  0  0  0  0  0  0
   -3.0682   -0.5919   -1.2784 C   0  0  0  0  0  0  0  0  0  0  0  0
   -3.5436    0.3773   -0.1726 C   0  0  1  0  0  0  0  0  0  0  0  0
   -2.4300    1.3323    0.1978 C   0  0  0  0  0  0  0  0  0  0  0  0
   -4.7383    1.1844   -0.7127 C   0  0  0  0  0  0  0  0  0  0  0  0
   -3.9935   -0.3880    1.0470 C   0  0  0  0  0  0  0  0  0  0  0  0
   -4.9644   -1.3075    1.0375 C   0  0  0  0  0  0  0  0  0  0  0  0
    1.7801    0.8002   -1.0251 H   0  0  0  0  0  0  0  0  0  0  0  0
   -0.3033    0.1565   -1.7534 H   0  0  0  0  0  0  0  0  0  0  0  0
    1.3227   -1.6303   -1.8576 H   0  0  0  0  0  0  0  0  0  0  0  0
    0.5849   -2.7607   -0.7350 H   0  0  0  0  0  0  0  0  0  0  0  0
    1.9031    2.5022    0.8191 H   0  0  0  0  0  0  0  0  0  0  0  0
    1.0078    1.4143    1.8576 H   0  0  0  0  0  0  0  0  0  0  0  0
    4.6198   -1.5325   -0.0691 H   0  0  0  0  0  0  0  0  0  0  0  0
    3.7544   -0.9594   -1.4786 H   0  0  0  0  0  0  0  0  0  0  0  0
    2.5929   -2.7157    0.7045 H   0  0  0  0  0  0  0  0  0  0  0  0
    2.9890   -3.1564   -0.9440 H   0  0  0  0  0  0  0  0  0  0  0  0
    0.1365    2.6818   -0.7740 H   0  0  0  0  0  0  0  0  0  0  0  0
   -0.5149    2.9901    0.8287 H   0  0  0  0  0  0  0  0  0  0  0  0
   -1.8348   -1.8505   -0.0647 H   0  0  0  0  0  0  0  0  0  0  0  0
   -1.4219   -1.8827   -1.7662 H   0  0  0  0  0  0  0  0  0  0  0  0
   -0.2663   -0.4315    1.9894 H   0  0  0  0  0  0  0  0  0  0  0  0
   -0.3513   -2.0781    1.3799 H   0  0  0  0  0  0  0  0  0  0  0  0
    1.1411   -1.4788    2.0219 H   0  0  0  0  0  0  0  0  0  0  0  0
    5.2201    0.9828    0.1346 H   0  0  0  0  0  0  0  0  0  0  0  0
    3.9567    2.1738    0.4295 H   0  0  0  0  0  0  0  0  0  0  0  0
    3.1308    0.7113    2.4851 H   0  0  0  0  0  0  0  0  0  0  0  0
    3.0547   -1.0459    2.2758 H   0  0  0  0  0  0  0  0  0  0  0  0
    4.5693   -0.2125    2.0731 H   0  0  0  0  0  0  0  0  0  0  0  0
   -2.9700   -0.0495   -2.2298 H   0  0  0  0  0  0  0  0  0  0  0  0
   -3.7979   -1.3884   -1.4685 H   0  0  0  0  0  0  0  0  0  0  0  0
   -2.7227    2.2597    0.6874 H   0  0  0  0  0  0  0  0  0  0  0  0
   -4.4332    1.8318   -1.5444 H   0  0  0  0  0  0  0  0  0  0  0  0
   -5.5382    0.5364   -1.0898 H   0  0  0  0  0  0  0  0  0  0  0  0
   -5.1724    1.8322    0.0594 H   0  0  0  0  0  0  0  0  0  0  0  0
   -3.5010   -0.1892    1.9969 H   0  0  0  0  0  0  0  0  0  0  0  0
    4.7357    0.9317   -1.9046 H   0  0  0  0  0  0  0  0  0  0  0  0
   -5.2349   -1.8219    1.9536 H   0  0  0  0  0  0  0  0  0  0  0  0
   -5.5103   -1.5691    0.1386 H   0  0  0  0  0  0  0  0  0  0  0  0
  1 14  1  0  0  0  0
  1 51  1  0  0  0  0
  2  3  1  0  0  0  0
  2  4  1  0  0  0  0
  2  6  1  0  0  0  0
  2 13  1  0  0  0  0
  3  5  1  0  0  0  0
  3  7  1  0  0  0  0
  3 22  1  0  0  0  0
  4  9  1  0  0  0  0
  4 12  1  0  0  0  0
  4 23  1  0  0  0  0
  5  8  1  0  0  0  0
  5 14  1  0  0  0  0
  5 15  1  0  0  0  0
  6 10  1  0  0  0  0
  6 24  1  0  0  0  0
  6 25  1  0  0  0  0
  7 11  1  0  0  0  0
  7 26  1  0  0  0  0
  7 27  1  0  0  0  0
  8 10  1  0  0  0  0
  8 28  1  0  0  0  0
  8 29  1  0  0  0  0
  9 11  1  0  0  0  0
  9 18  2  0  0  0  0
 10 30  1  0  0  0  0
 10 31  1  0  0  0  0
 11 32  1  0  0  0  0
 11 33  1  0  0  0  0
 12 16  1  0  0  0  0
 12 34  1  0  0  0  0
 12 35  1  0  0  0  0
 13 36  1  0  0  0  0
 13 37  1  0  0  0  0
 13 38  1  0  0  0  0
 14 39  1  0  0  0  0
 14 40  1  0  0  0  0
 15 41  1  0  0  0  0
 15 42  1  0  0  0  0
 15 43  1  0  0  0  0
 16 17  1  0  0  0  0
 16 44  1  0  0  0  0
 16 45  1  0  0  0  0
 17 18  1  0  0  0  0
 17 19  1  0  0  0  0
 17 20  1  0  0  0  0
 18 46  1  0  0  0  0
 19 47  1  0  0  0  0
 19 48  1  0  0  0  0
 19 49  1  0  0  0  0
 20 21  2  0  0  0  0
 20 50  1  0  0  0  0
 21 52  1  0  0  0  0
 21 53  1  0  0  0  0
M  END
> <PUBCHEM_COMPOUND_CID>
12314285

> <PUBCHEM_CONFORMER_RMSD>
0.6

> <PUBCHEM_CONFORMER_DIVERSEORDER>
3
4
1
2

> <PUBCHEM_MMFF94_PARTIAL_CHARGES>
14
1 -0.68
11 0.14
14 0.28
17 0.28
18 -0.29
20 -0.29
21 -0.3
4 0.14
46 0.15
50 0.15
51 0.4
52 0.15
53 0.15
9 -0.28

> <PUBCHEM_EFFECTIVE_ROTOR_COUNT>
3.8

> <PUBCHEM_PHARMACOPHORE_FEATURES>
6
1 1 acceptor
1 1 donor
1 21 hydrophobe
6 2 3 4 7 9 11 rings
6 2 3 5 6 8 10 rings
6 4 9 12 16 17 18 rings

> <PUBCHEM_HEAVY_ATOM_COUNT>
21

> <PUBCHEM_ATOM_DEF_STEREO_COUNT>
5

> <PUBCHEM_ATOM_UDEF_STEREO_COUNT>
0

> <PUBCHEM_BOND_DEF_STEREO_COUNT>
0

> <PUBCHEM_BOND_UDEF_STEREO_COUNT>
0

> <PUBCHEM_ISOTOPIC_ATOM_COUNT>
0

> <PUBCHEM_COMPONENT_COUNT>
1

> <PUBCHEM_CACTVS_TAUTO_COUNT>
1

> <PUBCHEM_CONFORMER_ID>
00BBE6AD00000003

> <PUBCHEM_MMFF94_ENERGY>
73.2304

> <PUBCHEM_FEATURE_SELFOVERLAP>
30.478

> <PUBCHEM_SHAPE_FINGERPRINT>
10366900 7 18337392759603709875
10967382 1 18343858909744556918
10980938 120 18272928302203443094
11132069 177 18272356577457561273
11552529 35 17916310618377635827
12236239 1 18113614595531413640
12507560 40 18409733933283997119
12553582 1 18271803553221358629
12616999 72 18409174320314495044
12633257 1 18265072382513701243
12670546 56 16559024978694813705
128620 24 18186522107023816245
13140716 1 18055344996826117313
13221675 6 18342734109344060669
13224815 77 18335139778046121001
13296908 3 18336548222867225815
13583140 156 16950826081449362934
13675066 3 18411414008051445041
14289901 80 18411136909456596003
14787075 74 18115877458748064147
14790565 3 18125725827374853912
15196674 1 18413387614216949685
15239154 128 17704068495262751587
15309172 13 17917710184767343823
15375358 24 18335414626436939623
15375462 189 18273495671635812579
15536298 74 18059850628120737638
1601671 61 18343302595621291188
16945 1 18272079526350055932
1813 80 17748832916712590541
18186145 218 17749105561046675118
18785283 64 18118972639709917889
200 152 17846486038076508725
20261772 1 18131070463228922887
20645477 70 18200867366775911383
20739085 24 18128277617589213265
21267235 1 18271813371585214726
221490 88 18339367340447501262
22182313 1 18127959816121926580
23184049 59 18060421300657504631
2334 1 17693923494599227436
23402539 116 18260821592718193274
23557571 272 15430025561590324829
23558518 356 17836646323213825497
23559900 14 18191304875394496306
26918003 58 18187921742640111147
2748010 2 18055626218405201076
296302 2 17821729433780200925
312423 11 18198074594467156186
3286 77 16226316028932301952
3323516 105 18411423912013953586
34934 24 18271794714315638229
350125 39 18199187291913465340
4325135 7 17531253923319035455
4340502 62 17385720352791190992
474 4 18186804690508466228
5104073 3 18341331085156825611
537710 114 18342175561721919132
633830 44 18186799149599695151

> <PUBCHEM_SHAPE_MULTIPOLES>
426.3
8.99
2.13
1.32
4.29
0.05
0.28
-0.01
0.44
-0.77
-0.17
-0.12
0.19
0.35

> <PUBCHEM_SHAPE_SELFOVERLAP>
888.114

> <PUBCHEM_SHAPE_VOLUME>
239.8

> <PUBCHEM_COORDINATE_TYPE>
2
5
10

$$$$
