637406
  -OEChem-08302003343D

 63 66  0     1  0  0  0  0  0999 V2000
    1.4795   -2.2562   -0.0079 O   0  0  0  0  0  0  0  0  0  0  0  0
   -1.3449    1.2031    0.0790 O   0  0  0  0  0  0  0  0  0  0  0  0
   -4.3209   -2.0400   -1.4396 O   0  0  0  0  0  0  0  0  0  0  0  0
    7.6221   -0.8824   -0.2164 O   0  0  0  0  0  0  0  0  0  0  0  0
   -4.5983   -3.7774    0.7124 O   0  0  0  0  0  0  0  0  0  0  0  0
   -1.5866    3.1577   -1.1130 O   0  0  0  0  0  0  0  0  0  0  0  0
    8.3108    1.6511    0.6966 O   0  0  0  0  0  0  0  0  0  0  0  0
   -7.4828    1.9428    1.0218 O   0  0  0  0  0  0  0  0  0  0  0  0
    0.6508   -0.0633    0.4279 C   0  0  2  0  0  0  0  0  0  0  0  0
    2.1690   -0.0604    0.5877 C   0  0  1  0  0  0  0  0  0  0  0  0
    0.4065   -1.3574   -0.3588 C   0  0  2  0  0  0  0  0  0  0  0  0
    2.4345   -1.5454    0.7940 C   0  0  0  0  0  0  0  0  0  0  0  0
    2.9394    0.4723   -0.6214 C   0  0  0  0  0  0  0  0  0  0  0  0
    0.0403    1.1710   -0.2194 C   0  0  0  0  0  0  0  0  0  0  0  0
   -0.9293   -2.0014   -0.0764 C   0  0  0  0  0  0  0  0  0  0  0  0
    4.3682    0.7824   -0.2726 C   0  0  0  0  0  0  0  0  0  0  0  0
   -2.0245   -1.7237   -0.8944 C   0  0  0  0  0  0  0  0  0  0  0  0
   -1.0687   -2.8735    1.0033 C   0  0  0  0  0  0  0  0  0  0  0  0
    5.3481   -0.2014   -0.4056 C   0  0  0  0  0  0  0  0  0  0  0  0
    4.7141    2.0538    0.1853 C   0  0  0  0  0  0  0  0  0  0  0  0
   -3.2589   -2.3182   -0.6328 C   0  0  0  0  0  0  0  0  0  0  0  0
   -2.3030   -3.4680    1.2650 C   0  0  0  0  0  0  0  0  0  0  0  0
   -3.3982   -3.1903    0.4469 C   0  0  0  0  0  0  0  0  0  0  0  0
   -2.0467    2.2552   -0.4310 C   0  0  0  0  0  0  0  0  0  0  0  0
    6.6738    0.0863   -0.0811 C   0  0  0  0  0  0  0  0  0  0  0  0
    6.0397    2.3416    0.5099 C   0  0  0  0  0  0  0  0  0  0  0  0
    7.0196    1.3578    0.3767 C   0  0  0  0  0  0  0  0  0  0  0  0
   -3.4788    2.1733   -0.0472 C   0  0  0  0  0  0  0  0  0  0  0  0
   -4.3711    3.1589   -0.4691 C   0  0  0  0  0  0  0  0  0  0  0  0
   -3.9319    1.1106    0.7345 C   0  0  0  0  0  0  0  0  0  0  0  0
   -4.0944   -1.1385   -2.5212 C   0  0  0  0  0  0  0  0  0  0  0  0
    7.1857   -2.1548   -0.6904 C   0  0  0  0  0  0  0  0  0  0  0  0
   -5.7165    3.0819   -0.1093 C   0  0  0  0  0  0  0  0  0  0  0  0
   -5.2773    1.0334    1.0943 C   0  0  0  0  0  0  0  0  0  0  0  0
   -6.1696    2.0191    0.6724 C   0  0  0  0  0  0  0  0  0  0  0  0
    0.2170   -0.1753    1.4335 H   0  0  0  0  0  0  0  0  0  0  0  0
    2.4525    0.5077    1.4825 H   0  0  0  0  0  0  0  0  0  0  0  0
    0.5087   -1.1893   -1.4384 H   0  0  0  0  0  0  0  0  0  0  0  0
    2.2420   -1.8208    1.8379 H   0  0  0  0  0  0  0  0  0  0  0  0
    3.4380   -1.8924    0.5498 H   0  0  0  0  0  0  0  0  0  0  0  0
    2.4906    1.3981   -0.9992 H   0  0  0  0  0  0  0  0  0  0  0  0
    2.9036   -0.2299   -1.4644 H   0  0  0  0  0  0  0  0  0  0  0  0
    0.1834    1.1661   -1.3062 H   0  0  0  0  0  0  0  0  0  0  0  0
    0.5035    2.0724    0.1993 H   0  0  0  0  0  0  0  0  0  0  0  0
   -1.8561   -1.0408   -1.7202 H   0  0  0  0  0  0  0  0  0  0  0  0
   -0.2334   -3.0968    1.6611 H   0  0  0  0  0  0  0  0  0  0  0  0
    5.0314   -1.1631   -0.7923 H   0  0  0  0  0  0  0  0  0  0  0  0
    3.9595    2.8281    0.2960 H   0  0  0  0  0  0  0  0  0  0  0  0
   -2.3983   -4.1435    2.1109 H   0  0  0  0  0  0  0  0  0  0  0  0
    6.2952    3.3360    0.8659 H   0  0  0  0  0  0  0  0  0  0  0  0
   -4.5059   -4.3470    1.4953 H   0  0  0  0  0  0  0  0  0  0  0  0
   -4.0380    3.9945   -1.0789 H   0  0  0  0  0  0  0  0  0  0  0  0
   -3.2705    0.3291    1.0953 H   0  0  0  0  0  0  0  0  0  0  0  0
    8.3613    2.5759    0.9939 H   0  0  0  0  0  0  0  0  0  0  0  0
   -5.0460   -1.0271   -3.0515 H   0  0  0  0  0  0  0  0  0  0  0  0
   -3.3760   -1.5456   -3.2409 H   0  0  0  0  0  0  0  0  0  0  0  0
   -3.8107   -0.1418   -2.1693 H   0  0  0  0  0  0  0  0  0  0  0  0
    6.4774   -2.6233    0.0017 H   0  0  0  0  0  0  0  0  0  0  0  0
    6.7938   -2.0925   -1.7113 H   0  0  0  0  0  0  0  0  0  0  0  0
    8.0671   -2.8035   -0.7286 H   0  0  0  0  0  0  0  0  0  0  0  0
   -6.4018    3.8557   -0.4448 H   0  0  0  0  0  0  0  0  0  0  0  0
   -5.6241    0.2039    1.7045 H   0  0  0  0  0  0  0  0  0  0  0  0
   -7.9541    2.7054    0.6444 H   0  0  0  0  0  0  0  0  0  0  0  0
  1 11  1  0  0  0  0
  1 12  1  0  0  0  0
  2 14  1  0  0  0  0
  2 24  1  0  0  0  0
  3 21  1  0  0  0  0
  3 31  1  0  0  0  0
  4 25  1  0  0  0  0
  4 32  1  0  0  0  0
  5 23  1  0  0  0  0
  5 51  1  0  0  0  0
  6 24  2  0  0  0  0
  7 27  1  0  0  0  0
  7 54  1  0  0  0  0
  8 35  1  0  0  0  0
  8 63  1  0  0  0  0
  9 10  1  0  0  0  0
  9 11  1  0  0  0  0
  9 14  1  0  0  0  0
  9 36  1  0  0  0  0
 10 12  1  0  0  0  0
 10 13  1  0  0  0  0
 10 37  1  0  0  0  0
 11 15  1  0  0  0  0
 11 38  1  0  0  0  0
 12 39  1  0  0  0  0
 12 40  1  0  0  0  0
 13 16  1  0  0  0  0
 13 41  1  0  0  0  0
 13 42  1  0  0  0  0
 14 43  1  0  0  0  0
 14 44  1  0  0  0  0
 15 17  2  0  0  0  0
 15 18  1  0  0  0  0
 16 19  2  0  0  0  0
 16 20  1  0  0  0  0
 17 21  1  0  0  0  0
 17 45  1  0  0  0  0
 18 22  2  0  0  0  0
 18 46  1  0  0  0  0
 19 25  1  0  0  0  0
 19 47  1  0  0  0  0
 20 26  2  0  0  0  0
 20 48  1  0  0  0  0
 21 23  2  0  0  0  0
 22 23  1  0  0  0  0
 22 49  1  0  0  0  0
 24 28  1  0  0  0  0
 25 27  2  0  0  0  0
 26 27  1  0  0  0  0
 26 50  1  0  0  0  0
 28 29  2  0  0  0  0
 28 30  1  0  0  0  0
 29 33  1  0  0  0  0
 29 52  1  0  0  0  0
 30 34  2  0  0  0  0
 30 53  1  0  0  0  0
 31 55  1  0  0  0  0
 31 56  1  0  0  0  0
 31 57  1  0  0  0  0
 32 58  1  0  0  0  0
 32 59  1  0  0  0  0
 32 60  1  0  0  0  0
 33 35  2  0  0  0  0
 33 61  1  0  0  0  0
 34 35  1  0  0  0  0
 34 62  1  0  0  0  0
M  END
> <PUBCHEM_COMPOUND_CID>
637406

> <PUBCHEM_CONFORMER_RMSD>
1

> <PUBCHEM_CONFORMER_DIVERSEORDER>
1
135
31
90
44
87
4
138
124
73
33
149
153
114
127
113
50
64
140
23
133
146
105
123
92
85
3
76
98
119
99
112
121
86
67
55
60
66
115
37
24
128
120
116
152
100
141
63
54
130
75
96
129
53
35
137
2
142
12
147
93
32
62
40
89
41
104
94
107
78
125
72
118
29
144
10
36
70
5
21
59
95
126
56
52
97
69
101
71
25
134
143
45
15
38
61
131
88
82
27
91
79
28
106
16
80
9
139
22
65
108
110
58
18
26
109
19
122
7
84
151
47
51
103
148
8
46
20
11
42
102
111
14
17
83
117
43
34
136
145
39
150
6
30
68
48
74
57
13
132
77
49
81

> <PUBCHEM_MMFF94_PARTIAL_CHARGES>
46
1 -0.56
11 0.42
12 0.28
13 0.14
14 0.28
15 -0.14
16 -0.14
17 -0.15
18 -0.15
19 -0.15
2 -0.43
20 -0.15
21 0.08
22 -0.15
23 0.08
24 0.63
25 0.08
26 -0.15
27 0.08
28 0.09
29 -0.15
3 -0.36
30 -0.15
31 0.28
32 0.28
33 -0.15
34 -0.15
35 0.08
4 -0.36
45 0.15
46 0.15
47 0.15
48 0.15
49 0.15
5 -0.53
50 0.15
51 0.45
52 0.15
53 0.15
54 0.45
6 -0.57
61 0.15
62 0.15
63 0.45
7 -0.53
8 -0.53

> <PUBCHEM_EFFECTIVE_ROTOR_COUNT>
10

> <PUBCHEM_PHARMACOPHORE_FEATURES>
11
1 1 acceptor
1 3 acceptor
1 4 acceptor
1 5 donor
1 6 acceptor
1 7 donor
1 8 donor
5 1 9 10 11 12 rings
6 15 17 18 21 22 23 rings
6 16 19 20 25 26 27 rings
6 28 29 30 33 34 35 rings

> <PUBCHEM_HEAVY_ATOM_COUNT>
35

> <PUBCHEM_ATOM_DEF_STEREO_COUNT>
3

> <PUBCHEM_ATOM_UDEF_STEREO_COUNT>
0

> <PUBCHEM_BOND_DEF_STEREO_COUNT>
0

> <PUBCHEM_BOND_UDEF_STEREO_COUNT>
0

> <PUBCHEM_ISOTOPIC_ATOM_COUNT>
0

> <PUBCHEM_COMPONENT_COUNT>
1

> <PUBCHEM_CACTVS_TAUTO_COUNT>
24

> <PUBCHEM_CONFORMER_ID>
0009B9DE00000001

> <PUBCHEM_MMFF94_ENERGY>
119.6243

> <PUBCHEM_FEATURE_SELFOVERLAP>
55.824

> <PUBCHEM_SHAPE_FINGERPRINT>
10050765 1 18410011014335896330
10411042 1 17905609153409142859
10864689 126 18264489477509849476
11007060 377 18413103940649935449
11136131 41 17969500412351896595
13383665 225 18042703856989112004
13782708 43 17988924535234103118
14394314 77 18411421679422965009
14931854 50 18192685987238694967
15064986 266 18338241561395452230
15183329 4 18113607994351458526
15274700 242 17968082106549013627
15276724 80 18197501937602835292
1577012 14 18333734654780959684
15927050 60 18337107869801672243
16112460 7 18269280062529734001
20766409 102 17901111033859557164
21236236 1 18341894129515130534
21756936 100 18410292519329443883
4073 2 18409168840326485456
469060 322 17313375768516201181
5104073 3 18410284848997570504
5171179 24 17629750434294249233
531348 171 18131067151588150838
5776283 40 18121518868359374110
5969126 39 18198899399897302023
59755656 520 18260547796795069102
6086070 43 17060329739153249914
6669772 16 18199193880214495647
7288768 16 17967819323634270475

> <PUBCHEM_SHAPE_MULTIPOLES>
673.33
20.02
4.65
1.2
29.3
1.51
0.42
-10.58
-1.69
-6.72
-0.48
-1.47
0.48
0.36

> <PUBCHEM_SHAPE_SELFOVERLAP>
1458.957

> <PUBCHEM_SHAPE_VOLUME>
369

> <PUBCHEM_COORDINATE_TYPE>
2
5
10

$$$$
