177257
  -OEChem-08302004023D

 45 47  0     0  0  0  0  0  0999 V2000
   -5.4660   -1.1293    0.1523 O   0  0  0  0  0  0  0  0  0  0  0  0
    0.2660    3.3327   -0.0539 O   0  0  0  0  0  0  0  0  0  0  0  0
    3.2012   -2.4105    0.1677 O   0  0  0  0  0  0  0  0  0  0  0  0
    2.5303    2.2677    0.2396 O   0  0  0  0  0  0  0  0  0  0  0  0
    0.5621   -2.5627    0.8575 O   0  0  0  0  0  0  0  0  0  0  0  0
   -3.7329    0.5428   -0.1276 C   0  0  0  0  0  0  0  0  0  0  0  0
   -2.2043    0.6415   -0.0504 C   0  0  0  0  0  0  0  0  0  0  0  0
   -1.3786   -0.5056    0.0261 C   0  0  0  0  0  0  0  0  0  0  0  0
    0.0292   -0.3462    0.1647 C   0  0  0  0  0  0  0  0  0  0  0  0
    0.5946    0.9344    0.1183 C   0  0  0  0  0  0  0  0  0  0  0  0
   -4.2675   -0.8852    0.0037 C   0  0  0  0  0  0  0  0  0  0  0  0
   -4.3814    1.3617    1.0104 C   0  0  0  0  0  0  0  0  0  0  0  0
   -4.2219    1.0667   -1.4923 C   0  0  0  0  0  0  0  0  0  0  0  0
   -1.6005    1.9123   -0.0656 C   0  0  0  0  0  0  0  0  0  0  0  0
    2.9348   -0.0567    0.0827 C   0  0  0  0  0  0  0  0  0  0  0  0
   -0.2201    2.0596    0.0023 C   0  0  0  0  0  0  0  0  0  0  0  0
   -2.0171   -1.8219   -0.1187 C   0  0  0  0  0  0  0  0  0  0  0  0
    4.4004    0.2115   -0.1029 C   0  0  0  0  0  0  0  0  0  0  0  0
    2.0568    1.1390    0.1649 C   0  0  0  0  0  0  0  0  0  0  0  0
    0.9521   -1.4845    0.4254 C   0  0  0  0  0  0  0  0  0  0  0  0
   -3.3357   -2.0189   -0.1169 C   0  0  0  0  0  0  0  0  0  0  0  0
    2.4052   -1.2809    0.1980 C   0  0  0  0  0  0  0  0  0  0  0  0
    4.6374    0.9502   -1.4150 C   0  0  0  0  0  0  0  0  0  0  0  0
    4.9573    1.0003    1.0777 C   0  0  0  0  0  0  0  0  0  0  0  0
    3.2985   -2.9179   -1.1479 C   0  0  0  0  0  0  0  0  0  0  0  0
   -4.1507    2.4299    0.9425 H   0  0  0  0  0  0  0  0  0  0  0  0
   -5.4745    1.2756    0.9979 H   0  0  0  0  0  0  0  0  0  0  0  0
   -4.0390    1.0088    1.9909 H   0  0  0  0  0  0  0  0  0  0  0  0
   -3.9765    2.1240   -1.6405 H   0  0  0  0  0  0  0  0  0  0  0  0
   -3.7691    0.5029   -2.3170 H   0  0  0  0  0  0  0  0  0  0  0  0
   -5.3094    0.9684   -1.5918 H   0  0  0  0  0  0  0  0  0  0  0  0
   -2.2219    2.8012   -0.1505 H   0  0  0  0  0  0  0  0  0  0  0  0
   -1.3959   -2.6945   -0.2757 H   0  0  0  0  0  0  0  0  0  0  0  0
    4.9585   -0.7311   -0.1505 H   0  0  0  0  0  0  0  0  0  0  0  0
   -3.7544   -3.0134   -0.2222 H   0  0  0  0  0  0  0  0  0  0  0  0
    4.2656    1.9789   -1.4153 H   0  0  0  0  0  0  0  0  0  0  0  0
    4.1743    0.4231   -2.2570 H   0  0  0  0  0  0  0  0  0  0  0  0
    5.7129    1.0062   -1.6204 H   0  0  0  0  0  0  0  0  0  0  0  0
    4.6345    0.5749    2.0346 H   0  0  0  0  0  0  0  0  0  0  0  0
    4.6981    2.0623    1.0665 H   0  0  0  0  0  0  0  0  0  0  0  0
    6.0532    0.9573    1.0605 H   0  0  0  0  0  0  0  0  0  0  0  0
   -0.4689    3.9640   -0.1353 H   0  0  0  0  0  0  0  0  0  0  0  0
    3.9439   -3.8011   -1.1253 H   0  0  0  0  0  0  0  0  0  0  0  0
    3.7487   -2.1910   -1.8324 H   0  0  0  0  0  0  0  0  0  0  0  0
    2.3180   -3.2281   -1.5261 H   0  0  0  0  0  0  0  0  0  0  0  0
  1 11  2  0  0  0  0
  2 16  1  0  0  0  0
  2 42  1  0  0  0  0
  3 22  1  0  0  0  0
  3 25  1  0  0  0  0
  4 19  2  0  0  0  0
  5 20  2  0  0  0  0
  6  7  1  0  0  0  0
  6 11  1  0  0  0  0
  6 12  1  0  0  0  0
  6 13  1  0  0  0  0
  7  8  1  0  0  0  0
  7 14  2  0  0  0  0
  8  9  2  0  0  0  0
  8 17  1  0  0  0  0
  9 10  1  0  0  0  0
  9 20  1  0  0  0  0
 10 16  2  0  0  0  0
 10 19  1  0  0  0  0
 11 21  1  0  0  0  0
 12 26  1  0  0  0  0
 12 27  1  0  0  0  0
 12 28  1  0  0  0  0
 13 29  1  0  0  0  0
 13 30  1  0  0  0  0
 13 31  1  0  0  0  0
 14 16  1  0  0  0  0
 14 32  1  0  0  0  0
 15 18  1  0  0  0  0
 15 19  1  0  0  0  0
 15 22  2  0  0  0  0
 17 21  2  0  0  0  0
 17 33  1  0  0  0  0
 18 23  1  0  0  0  0
 18 24  1  0  0  0  0
 18 34  1  0  0  0  0
 20 22  1  0  0  0  0
 21 35  1  0  0  0  0
 23 36  1  0  0  0  0
 23 37  1  0  0  0  0
 23 38  1  0  0  0  0
 24 39  1  0  0  0  0
 24 40  1  0  0  0  0
 24 41  1  0  0  0  0
 25 43  1  0  0  0  0
 25 44  1  0  0  0  0
 25 45  1  0  0  0  0
M  END
> <PUBCHEM_COMPOUND_CID>
177257

> <PUBCHEM_CONFORMER_RMSD>
0.6

> <PUBCHEM_CONFORMER_DIVERSEORDER>
1
2
3

> <PUBCHEM_MMFF94_PARTIAL_CHARGES>
25
1 -0.57
10 0.09
11 0.49
14 -0.15
15 -0.12
16 0.08
17 -0.18
18 0.14
19 0.47
2 -0.53
20 0.47
21 -0.14
22 0.09
25 0.28
3 -0.36
32 0.15
33 0.15
35 0.15
4 -0.57
42 0.45
5 -0.57
6 0.2
7 -0.14
8 0.03
9 0.09

> <PUBCHEM_EFFECTIVE_ROTOR_COUNT>
2.2

> <PUBCHEM_PHARMACOPHORE_FEATURES>
10
1 1 acceptor
1 2 donor
1 3 acceptor
1 4 acceptor
1 5 acceptor
3 18 23 24 hydrophobe
3 6 12 13 hydrophobe
6 6 7 8 11 17 21 rings
6 7 8 9 10 14 16 rings
6 9 10 15 19 20 22 rings

> <PUBCHEM_HEAVY_ATOM_COUNT>
25

> <PUBCHEM_ATOM_DEF_STEREO_COUNT>
0

> <PUBCHEM_ATOM_UDEF_STEREO_COUNT>
0

> <PUBCHEM_BOND_DEF_STEREO_COUNT>
0

> <PUBCHEM_BOND_UDEF_STEREO_COUNT>
0

> <PUBCHEM_ISOTOPIC_ATOM_COUNT>
0

> <PUBCHEM_COMPONENT_COUNT>
1

> <PUBCHEM_CACTVS_TAUTO_COUNT>
89

> <PUBCHEM_CONFORMER_ID>
0002B46900000001

> <PUBCHEM_MMFF94_ENERGY>
88.1909

> <PUBCHEM_FEATURE_SELFOVERLAP>
50.792

> <PUBCHEM_SHAPE_FINGERPRINT>
10498660 4 18335981991083919894
10616163 171 18341051908056572631
10906281 52 18263096547043787608
10967382 1 18410009952892671098
11578080 2 17314776404791220086
116883 192 18197782094256740326
11963148 33 18263920097985481562
12107183 9 17839472081150378233
12403814 3 17458621207765006885
12553582 1 18411412925603862721
13140716 1 18194678172609567618
13224815 77 18408882923388350074
13583140 156 14044873934085420079
14223421 5 18340483357650121152
14787075 74 18187650244603397258
14790565 3 17979643329745440513
14866123 147 17406841682928434515
15081414 286 18411144618981063880
15196674 1 18410292476142238187
15536298 74 18341331106711074834
15664445 248 18269293373145652492
15788980 27 17095517379305803840
1601671 61 18411419522842226584
16945 1 18192704553527434465
17349148 13 17967250884548652880
17909252 39 18058460807497082198
1813 80 17603309241040290013
18681886 176 18336548339385705124
19591789 44 18337954489454213379
20028762 73 18055915643636207623
20691752 17 17531821134212304154
20715895 44 17752185211433109085
20905425 154 18341334379908443958
21267235 1 18338806705539357835
21279426 13 18265610988402389493
21421861 104 17970060054942421474
221490 88 18336270132029605355
22393880 68 18116710720789350406
2334 1 18337105769372052203
23402539 116 18338507634223787438
23558518 356 18118974585430037568
23559900 14 18340483357829858982
23566358 2 18410007706635519982
2748010 2 18409447015882277867
3004659 81 18187645769885999070
335352 9 18410291389700297837
34797466 226 16917070009335241352
34934 24 18411409609698874855
350125 39 18408888464856342097
3545911 37 18411700997481372602
3680242 22 18261107444314136474
4280585 95 17764034567343223622
5104073 3 18410856516975259499
59755656 215 18410009906466013798
9709674 26 18410014342397259491

> <PUBCHEM_SHAPE_MULTIPOLES>
485.14
10.08
3.06
0.97
1.4
0.43
-0.2
0.29
-0.73
-1.03
-0.12
-0.25
-0.06
0.37

> <PUBCHEM_SHAPE_SELFOVERLAP>
1066.874

> <PUBCHEM_SHAPE_VOLUME>
261.1

> <PUBCHEM_COORDINATE_TYPE>
2
5
10

$$$$
