91748288
  -OEChem-08302001473D

 39 40  0     1  0  0  0  0  0999 V2000
    0.4410    0.7827    0.5926 C   0  0  1  0  0  0  0  0  0  0  0  0
   -1.2709   -0.7154   -0.6325 C   0  0  2  0  0  0  0  0  0  0  0  0
    0.1536   -0.5147   -0.1573 C   0  0  0  0  0  0  0  0  0  0  0  0
    1.9530    1.0898    0.6282 C   0  0  0  0  0  0  0  0  0  0  0  0
    2.5504   -1.2920   -0.0148 C   0  0  1  0  0  0  0  0  0  0  0  0
    2.7640   -0.1526    0.9909 C   0  0  0  0  0  0  0  0  0  0  0  0
   -1.6979    0.4920   -1.4829 C   0  0  0  0  0  0  0  0  0  0  0  0
   -2.2216   -0.9536    0.5464 C   0  0  0  0  0  0  0  0  0  0  0  0
   -0.3645    1.9639    0.0547 C   0  0  0  0  0  0  0  0  0  0  0  0
    1.1093   -1.4221   -0.4294 C   0  0  0  0  0  0  0  0  0  0  0  0
   -1.3116    1.8156   -0.8902 C   0  0  0  0  0  0  0  0  0  0  0  0
    3.4295   -1.1162   -1.2555 C   0  0  0  0  0  0  0  0  0  0  0  0
   -3.6537   -1.1180    0.0488 C   0  0  0  0  0  0  0  0  0  0  0  0
   -1.7815   -2.1761    1.3445 C   0  0  0  0  0  0  0  0  0  0  0  0
   -0.0991    3.3168    0.6566 C   0  0  0  0  0  0  0  0  0  0  0  0
    0.1131    0.6255    1.6305 H   0  0  0  0  0  0  0  0  0  0  0  0
   -1.3203   -1.5967   -1.2887 H   0  0  0  0  0  0  0  0  0  0  0  0
    2.1595    1.8667    1.3746 H   0  0  0  0  0  0  0  0  0  0  0  0
    2.2893    1.4854   -0.3388 H   0  0  0  0  0  0  0  0  0  0  0  0
    2.8497   -2.2278    0.4742 H   0  0  0  0  0  0  0  0  0  0  0  0
    3.8276    0.1031    1.0645 H   0  0  0  0  0  0  0  0  0  0  0  0
    2.4578   -0.4929    1.9893 H   0  0  0  0  0  0  0  0  0  0  0  0
   -2.7658    0.4914   -1.7130 H   0  0  0  0  0  0  0  0  0  0  0  0
   -1.1998    0.4259   -2.4606 H   0  0  0  0  0  0  0  0  0  0  0  0
   -2.2151   -0.0973    1.2329 H   0  0  0  0  0  0  0  0  0  0  0  0
    0.8504   -2.3203   -0.9857 H   0  0  0  0  0  0  0  0  0  0  0  0
   -1.8538    2.6838   -1.2557 H   0  0  0  0  0  0  0  0  0  0  0  0
    3.1744   -0.2076   -1.8118 H   0  0  0  0  0  0  0  0  0  0  0  0
    3.3171   -1.9664   -1.9379 H   0  0  0  0  0  0  0  0  0  0  0  0
    4.4868   -1.0553   -0.9760 H   0  0  0  0  0  0  0  0  0  0  0  0
   -0.8152   -2.0230    1.8349 H   0  0  0  0  0  0  0  0  0  0  0  0
   -2.5030   -2.3975    2.1391 H   0  0  0  0  0  0  0  0  0  0  0  0
   -1.7087   -3.0652    0.7085 H   0  0  0  0  0  0  0  0  0  0  0  0
   -4.0948   -0.1659   -0.2600 H   0  0  0  0  0  0  0  0  0  0  0  0
   -3.7159   -1.8236   -0.7866 H   0  0  0  0  0  0  0  0  0  0  0  0
   -4.2974   -1.5009    0.8493 H   0  0  0  0  0  0  0  0  0  0  0  0
   -0.1533    3.2628    1.7489 H   0  0  0  0  0  0  0  0  0  0  0  0
   -0.8306    4.0640    0.3304 H   0  0  0  0  0  0  0  0  0  0  0  0
    0.8922    3.6812    0.3706 H   0  0  0  0  0  0  0  0  0  0  0  0
  1  3  1  0  0  0  0
  1  4  1  0  0  0  0
  1  9  1  0  0  0  0
  1 16  1  0  0  0  0
  2  3  1  0  0  0  0
  2  7  1  0  0  0  0
  2  8  1  0  0  0  0
  2 17  1  0  0  0  0
  3 10  2  0  0  0  0
  4  6  1  0  0  0  0
  4 18  1  0  0  0  0
  4 19  1  0  0  0  0
  5  6  1  0  0  0  0
  5 10  1  0  0  0  0
  5 12  1  0  0  0  0
  5 20  1  0  0  0  0
  6 21  1  0  0  0  0
  6 22  1  0  0  0  0
  7 11  1  0  0  0  0
  7 23  1  0  0  0  0
  7 24  1  0  0  0  0
  8 13  1  0  0  0  0
  8 14  1  0  0  0  0
  8 25  1  0  0  0  0
  9 11  2  0  0  0  0
  9 15  1  0  0  0  0
 10 26  1  0  0  0  0
 11 27  1  0  0  0  0
 12 28  1  0  0  0  0
 12 29  1  0  0  0  0
 12 30  1  0  0  0  0
 13 34  1  0  0  0  0
 13 35  1  0  0  0  0
 13 36  1  0  0  0  0
 14 31  1  0  0  0  0
 14 32  1  0  0  0  0
 14 33  1  0  0  0  0
 15 37  1  0  0  0  0
 15 38  1  0  0  0  0
 15 39  1  0  0  0  0
M  END
> <PUBCHEM_COMPOUND_CID>
91748288

> <PUBCHEM_CONFORMER_RMSD>
0.6

> <PUBCHEM_CONFORMER_DIVERSEORDER>
1
3
7
5
2
8
6
4

> <PUBCHEM_MMFF94_PARTIAL_CHARGES>
11
1 0.28
10 -0.29
11 -0.29
15 0.14
2 0.14
26 0.15
27 0.15
3 -0.28
5 0.14
7 0.14
9 -0.28

> <PUBCHEM_EFFECTIVE_ROTOR_COUNT>
2

> <PUBCHEM_PHARMACOPHORE_FEATURES>
3
3 8 13 14 hydrophobe
6 1 2 3 7 9 11 rings
6 1 3 4 5 6 10 rings

> <PUBCHEM_HEAVY_ATOM_COUNT>
15

> <PUBCHEM_ATOM_DEF_STEREO_COUNT>
1

> <PUBCHEM_ATOM_UDEF_STEREO_COUNT>
2

> <PUBCHEM_BOND_DEF_STEREO_COUNT>
0

> <PUBCHEM_BOND_UDEF_STEREO_COUNT>
0

> <PUBCHEM_ISOTOPIC_ATOM_COUNT>
0

> <PUBCHEM_COMPONENT_COUNT>
1

> <PUBCHEM_CACTVS_TAUTO_COUNT>
1

> <PUBCHEM_CONFORMER_ID>
0577F7C000000001

> <PUBCHEM_MMFF94_ENERGY>
19.9872

> <PUBCHEM_FEATURE_SELFOVERLAP>
15.249

> <PUBCHEM_SHAPE_FINGERPRINT>
11578080 2 15838127942429068097
12423570 1 17982142802688659315
12716301 132 17824793751365106545
13764800 53 18264492771574821484
14761567 1 17973421236007640759
14817 1 17620240509159176157
15848700 24 18411694409349778335
161256 15 18343302582778353448
16945 1 17840569419208379156
17844478 74 18413109450538828246
17990270 104 18120093050627113091
19766037 51 18337688476243671934
20510252 161 18261674770464880266
20588541 1 18191300679131826667
20645476 183 17472725541062505046
20711985 344 18265902362703723714
21061003 4 18341053020273422986
21524375 3 17189250500713437060
22721475 48 18335137639236875099
22802520 49 18057602058343992086
2334 1 18340474647208784868
23419403 2 17829009381571683845
23526113 38 18120901041560585293
23557571 272 18409735045612007188
23559900 14 17409080302564518646
2748010 2 18270100379850877860
305870 269 17475233973667517921
576247 118 18337126642807563762
7364860 26 17907869744397507281
81228 2 18264499394414379161
8809292 202 18265049137464866274

> <PUBCHEM_SHAPE_MULTIPOLES>
308.69
4.55
2.81
1.25
0.82
2.16
-0.13
-2.87
-0.3
-0.63
0.62
0
-0.14
1.05

> <PUBCHEM_SHAPE_SELFOVERLAP>
630.164

> <PUBCHEM_SHAPE_VOLUME>
172.7

> <PUBCHEM_COORDINATE_TYPE>
2
5
10

$$$$
