151202
  -OEChem-08292014303D

 86 90  0     1  0  0  0  0  0999 V2000
    6.5615   -0.2515   -0.1241 O   0  0  0  0  0  0  0  0  0  0  0  0
   -4.3045    2.7789    1.5541 O   0  0  0  0  0  0  0  0  0  0  0  0
   -3.1265    1.0601    2.4782 O   0  0  0  0  0  0  0  0  0  0  0  0
    7.0046   -2.4888    0.2438 O   0  0  0  0  0  0  0  0  0  0  0  0
   -0.1369    0.6879   -0.5481 C   0  0  2  0  0  0  0  0  0  0  0  0
    0.7873   -0.3240    0.2410 C   0  0  1  0  0  0  0  0  0  0  0  0
    2.2831    0.1411    0.5266 C   0  0  2  0  0  0  0  0  0  0  0  0
   -1.5150   -0.0817   -0.9549 C   0  0  1  0  0  0  0  0  0  0  0  0
    2.9093    0.5482   -0.8589 C   0  0  1  0  0  0  0  0  0  0  0  0
    0.6387    1.1897   -1.8019 C   0  0  0  0  0  0  0  0  0  0  0  0
    2.0765    1.6545   -1.5367 C   0  0  0  0  0  0  0  0  0  0  0  0
   -2.1595   -0.6877    0.2952 C   0  0  0  0  0  0  0  0  0  0  0  0
    4.4651    0.7842   -0.8690 C   0  0  0  0  0  0  0  0  0  0  0  0
   -3.6811   -0.6872    0.4174 C   0  0  1  0  0  0  0  0  0  0  0  0
    0.0722   -0.9509    1.4606 C   0  0  0  0  0  0  0  0  0  0  0  0
    3.0853   -1.0766    1.0779 C   0  0  0  0  0  0  0  0  0  0  0  0
   -2.5334    0.8326   -1.7114 C   0  0  0  0  0  0  0  0  0  0  0  0
   -4.2040    0.7667    0.3142 C   0  0  1  0  0  0  0  0  0  0  0  0
   -0.4809    1.9371    0.3058 C   0  0  0  0  0  0  0  0  0  0  0  0
   -3.6326    1.5372   -0.9015 C   0  0  0  0  0  0  0  0  0  0  0  0
    5.1562   -0.4671   -0.2514 C   0  0  2  0  0  0  0  0  0  0  0  0
   -1.4143   -1.0919    1.3411 C   0  0  0  0  0  0  0  0  0  0  0  0
    2.3522    1.2700    1.5855 C   0  0  0  0  0  0  0  0  0  0  0  0
    4.5976   -0.8688    1.1101 C   0  0  0  0  0  0  0  0  0  0  0  0
   -1.2219   -1.2741   -1.9244 C   0  0  0  0  0  0  0  0  0  0  0  0
   -4.3841   -1.6636   -0.5465 C   0  0  0  0  0  0  0  0  0  0  0  0
   -5.7508    0.8078    0.3293 C   0  0  0  0  0  0  0  0  0  0  0  0
   -5.9257   -1.6251   -0.4601 C   0  0  0  0  0  0  0  0  0  0  0  0
    4.9681    0.9078   -2.3343 C   0  0  0  0  0  0  0  0  0  0  0  0
    4.9077    2.0793   -0.1582 C   0  0  0  0  0  0  0  0  0  0  0  0
   -6.4044   -0.1714   -0.6446 C   0  0  0  0  0  0  0  0  0  0  0  0
   -3.8040    1.5194    1.5707 C   0  0  0  0  0  0  0  0  0  0  0  0
   -6.5112   -2.4892   -1.5947 C   0  0  0  0  0  0  0  0  0  0  0  0
   -6.4217   -2.2081    0.8766 C   0  0  0  0  0  0  0  0  0  0  0  0
    7.2761   -1.3027    0.3733 C   0  0  0  0  0  0  0  0  0  0  0  0
    8.4714   -0.7920    1.1192 C   0  0  0  0  0  0  0  0  0  0  0  0
    0.9316   -1.1691   -0.4445 H   0  0  0  0  0  0  0  0  0  0  0  0
    2.7763   -0.3366   -1.5045 H   0  0  0  0  0  0  0  0  0  0  0  0
    0.1010    2.0152   -2.2822 H   0  0  0  0  0  0  0  0  0  0  0  0
    0.7072    0.3961   -2.5514 H   0  0  0  0  0  0  0  0  0  0  0  0
    2.5058    1.9144   -2.5095 H   0  0  0  0  0  0  0  0  0  0  0  0
    2.0786    2.5805   -0.9563 H   0  0  0  0  0  0  0  0  0  0  0  0
   -3.9309   -1.0552    1.4232 H   0  0  0  0  0  0  0  0  0  0  0  0
    0.2578   -0.3683    2.3670 H   0  0  0  0  0  0  0  0  0  0  0  0
    0.4875   -1.9486    1.6484 H   0  0  0  0  0  0  0  0  0  0  0  0
    2.8802   -1.9612    0.4602 H   0  0  0  0  0  0  0  0  0  0  0  0
    2.7486   -1.3246    2.0922 H   0  0  0  0  0  0  0  0  0  0  0  0
   -3.0586    0.2351   -2.4694 H   0  0  0  0  0  0  0  0  0  0  0  0
   -2.0102    1.5852   -2.3106 H   0  0  0  0  0  0  0  0  0  0  0  0
   -0.9303    1.6826    1.2664 H   0  0  0  0  0  0  0  0  0  0  0  0
    0.3908    2.5531    0.5220 H   0  0  0  0  0  0  0  0  0  0  0  0
   -1.1586    2.6094   -0.2238 H   0  0  0  0  0  0  0  0  0  0  0  0
   -3.2516    2.5203   -0.6045 H   0  0  0  0  0  0  0  0  0  0  0  0
   -4.4400    1.7741   -1.6073 H   0  0  0  0  0  0  0  0  0  0  0  0
    5.0080   -1.3082   -0.9446 H   0  0  0  0  0  0  0  0  0  0  0  0
   -1.9066   -1.4951    2.2235 H   0  0  0  0  0  0  0  0  0  0  0  0
    1.5117    1.2477    2.2822 H   0  0  0  0  0  0  0  0  0  0  0  0
    3.2419    1.2016    2.2168 H   0  0  0  0  0  0  0  0  0  0  0  0
    2.3732    2.2677    1.1441 H   0  0  0  0  0  0  0  0  0  0  0  0
    4.8815   -0.1304    1.8680 H   0  0  0  0  0  0  0  0  0  0  0  0
    5.0383   -1.8059    1.4666 H   0  0  0  0  0  0  0  0  0  0  0  0
   -0.8228   -0.9323   -2.8836 H   0  0  0  0  0  0  0  0  0  0  0  0
   -0.5323   -2.0130   -1.5092 H   0  0  0  0  0  0  0  0  0  0  0  0
   -2.1275   -1.8376   -2.1685 H   0  0  0  0  0  0  0  0  0  0  0  0
   -4.1128   -1.4370   -1.5805 H   0  0  0  0  0  0  0  0  0  0  0  0
   -4.0245   -2.6837   -0.3556 H   0  0  0  0  0  0  0  0  0  0  0  0
   -6.1141    1.8167    0.0905 H   0  0  0  0  0  0  0  0  0  0  0  0
   -6.1249    0.5985    1.3406 H   0  0  0  0  0  0  0  0  0  0  0  0
    6.0632    0.9118   -2.3834 H   0  0  0  0  0  0  0  0  0  0  0  0
    4.6163    0.0703   -2.9470 H   0  0  0  0  0  0  0  0  0  0  0  0
    4.6318    1.8367   -2.8056 H   0  0  0  0  0  0  0  0  0  0  0  0
    4.7992    2.0268    0.9256 H   0  0  0  0  0  0  0  0  0  0  0  0
    5.9669    2.2913   -0.3483 H   0  0  0  0  0  0  0  0  0  0  0  0
    4.3449    2.9474   -0.5154 H   0  0  0  0  0  0  0  0  0  0  0  0
   -7.4942   -0.1166   -0.5267 H   0  0  0  0  0  0  0  0  0  0  0  0
   -6.1932    0.1573   -1.6704 H   0  0  0  0  0  0  0  0  0  0  0  0
   -6.1817   -3.5308   -1.5085 H   0  0  0  0  0  0  0  0  0  0  0  0
   -7.6069   -2.4815   -1.5727 H   0  0  0  0  0  0  0  0  0  0  0  0
   -6.1972   -2.1222   -2.5784 H   0  0  0  0  0  0  0  0  0  0  0  0
   -6.0887   -3.2452    0.9979 H   0  0  0  0  0  0  0  0  0  0  0  0
   -6.0611   -1.6473    1.7430 H   0  0  0  0  0  0  0  0  0  0  0  0
   -7.5169   -2.2053    0.9216 H   0  0  0  0  0  0  0  0  0  0  0  0
   -4.0564    3.2820    2.3588 H   0  0  0  0  0  0  0  0  0  0  0  0
    8.1465   -0.1658    1.9541 H   0  0  0  0  0  0  0  0  0  0  0  0
    9.1172   -0.2273    0.4423 H   0  0  0  0  0  0  0  0  0  0  0  0
    9.0385   -1.6378    1.5183 H   0  0  0  0  0  0  0  0  0  0  0  0
  1 21  1  0  0  0  0
  1 35  1  0  0  0  0
  2 32  1  0  0  0  0
  2 83  1  0  0  0  0
  3 32  2  0  0  0  0
  4 35  2  0  0  0  0
  5  6  1  0  0  0  0
  5  8  1  0  0  0  0
  5 10  1  0  0  0  0
  5 19  1  0  0  0  0
  6  7  1  0  0  0  0
  6 15  1  0  0  0  0
  6 37  1  0  0  0  0
  7  9  1  0  0  0  0
  7 16  1  0  0  0  0
  7 23  1  0  0  0  0
  8 12  1  0  0  0  0
  8 17  1  0  0  0  0
  8 25  1  0  0  0  0
  9 11  1  0  0  0  0
  9 13  1  0  0  0  0
  9 38  1  0  0  0  0
 10 11  1  0  0  0  0
 10 39  1  0  0  0  0
 10 40  1  0  0  0  0
 11 41  1  0  0  0  0
 11 42  1  0  0  0  0
 12 14  1  0  0  0  0
 12 22  2  0  0  0  0
 13 21  1  0  0  0  0
 13 29  1  0  0  0  0
 13 30  1  0  0  0  0
 14 18  1  0  0  0  0
 14 26  1  0  0  0  0
 14 43  1  0  0  0  0
 15 22  1  0  0  0  0
 15 44  1  0  0  0  0
 15 45  1  0  0  0  0
 16 24  1  0  0  0  0
 16 46  1  0  0  0  0
 16 47  1  0  0  0  0
 17 20  1  0  0  0  0
 17 48  1  0  0  0  0
 17 49  1  0  0  0  0
 18 20  1  0  0  0  0
 18 27  1  0  0  0  0
 18 32  1  0  0  0  0
 19 50  1  0  0  0  0
 19 51  1  0  0  0  0
 19 52  1  0  0  0  0
 20 53  1  0  0  0  0
 20 54  1  0  0  0  0
 21 24  1  0  0  0  0
 21 55  1  0  0  0  0
 22 56  1  0  0  0  0
 23 57  1  0  0  0  0
 23 58  1  0  0  0  0
 23 59  1  0  0  0  0
 24 60  1  0  0  0  0
 24 61  1  0  0  0  0
 25 62  1  0  0  0  0
 25 63  1  0  0  0  0
 25 64  1  0  0  0  0
 26 28  1  0  0  0  0
 26 65  1  0  0  0  0
 26 66  1  0  0  0  0
 27 31  1  0  0  0  0
 27 67  1  0  0  0  0
 27 68  1  0  0  0  0
 28 31  1  0  0  0  0
 28 33  1  0  0  0  0
 28 34  1  0  0  0  0
 29 69  1  0  0  0  0
 29 70  1  0  0  0  0
 29 71  1  0  0  0  0
 30 72  1  0  0  0  0
 30 73  1  0  0  0  0
 30 74  1  0  0  0  0
 31 75  1  0  0  0  0
 31 76  1  0  0  0  0
 33 77  1  0  0  0  0
 33 78  1  0  0  0  0
 33 79  1  0  0  0  0
 34 80  1  0  0  0  0
 34 81  1  0  0  0  0
 34 82  1  0  0  0  0
 35 36  1  0  0  0  0
 36 84  1  0  0  0  0
 36 85  1  0  0  0  0
 36 86  1  0  0  0  0
M  END
> <PUBCHEM_COMPOUND_CID>
151202

> <PUBCHEM_CONFORMER_RMSD>
0.8

> <PUBCHEM_CONFORMER_DIVERSEORDER>
1
4
2
3

> <PUBCHEM_MMFF94_PARTIAL_CHARGES>
16
1 -0.43
12 -0.28
14 0.14
15 0.14
18 0.06
2 -0.65
21 0.28
22 -0.29
3 -0.57
32 0.66
35 0.66
36 0.06
4 -0.57
56 0.15
8 0.14
83 0.5

> <PUBCHEM_EFFECTIVE_ROTOR_COUNT>
5.6

> <PUBCHEM_PHARMACOPHORE_FEATURES>
11
1 2 acceptor
1 3 acceptor
1 4 acceptor
3 13 29 30 hydrophobe
3 2 3 32 anion
3 28 33 34 hydrophobe
6 14 18 26 27 28 31 rings
6 5 6 7 9 10 11 rings
6 5 6 8 12 15 22 rings
6 7 9 13 16 21 24 rings
6 8 12 14 17 18 20 rings

> <PUBCHEM_HEAVY_ATOM_COUNT>
36

> <PUBCHEM_ATOM_DEF_STEREO_COUNT>
8

> <PUBCHEM_ATOM_UDEF_STEREO_COUNT>
0

> <PUBCHEM_BOND_DEF_STEREO_COUNT>
0

> <PUBCHEM_BOND_UDEF_STEREO_COUNT>
0

> <PUBCHEM_ISOTOPIC_ATOM_COUNT>
0

> <PUBCHEM_COMPONENT_COUNT>
1

> <PUBCHEM_CACTVS_TAUTO_COUNT>
1

> <PUBCHEM_CONFORMER_ID>
00024EA200000001

> <PUBCHEM_MMFF94_ENERGY>
161.7411

> <PUBCHEM_FEATURE_SELFOVERLAP>
55.995

> <PUBCHEM_SHAPE_FINGERPRINT>
10 15 16415473866307497578
11007060 377 17676206900727359625
11315181 36 18413107260363983401
12011746 2 16515680065680268559
12107698 1 17988926716697525553
12166972 35 18336265738415432297
12236239 1 18408888459907286301
12596602 18 18341612650333461369
13583140 156 17275102800088664557
13782708 43 17131835430015058519
13811026 1 17676483999354220987
14068700 675 18334293171252264036
14251764 18 18408886256984468460
14856354 85 18060139877505498583
15021287 119 18114185220332949884
15082195 135 17314806306770383012
15183329 4 17967537865879386110
15361156 5 16081098103117666494
1577012 14 18335432273993790212
16067689 68 18053660279669229290
17349148 13 18336834177753146287
18608769 82 17346594218400096447
20028762 73 18408039607140795634
20721686 56 17168148965995902308
21033648 29 16128385839365586809
21267235 1 17821450161726041751
21315759 40 18408886230808612654
23081809 10 18334024899400185972
23522609 53 18045250239112859988
23559900 14 17750798942303411685
23569914 152 15870207216340968087
23569917 315 18186809101034789251
23569943 247 17824252714461892074
23576562 1 13768504131285991935
249057 25 18411992368147584092
3004659 81 17603300458428060196
335352 9 17603588535007213062
3383291 50 18410290341370283146
3418910 222 17131839810908380328
3633792 109 17895184533315079799
4015057 19 16878230882925411957
4112364 45 15912750826524177272
4339292 15 17274808208778263687
469060 322 17416989342820351915
497634 4 18408603665279493597
504579 68 18186791479400242287
59755656 215 16588303861383997162
6086070 43 18335971013195763789

> <PUBCHEM_SHAPE_MULTIPOLES>
717.39
19.24
2.31
1.9
15.7
0.06
0.01
9.71
0.14
-0.77
-0.04
-0.89
-0.45
-2.44

> <PUBCHEM_SHAPE_SELFOVERLAP>
1523.259

> <PUBCHEM_SHAPE_VOLUME>
395.2

> <PUBCHEM_COORDINATE_TYPE>
2
5
10

$$$$
