16142
  -OEChem-11212001463D

 78 84  0     1  0  0  0  0  0999 V2000
   -4.1465    1.4606   -0.1135 O   0  0  0  0  0  0  0  0  0  0  0  0
    4.2306   -1.0223    0.4359 O   0  0  0  0  0  0  0  0  0  0  0  0
    4.8044    1.7265    0.3401 O   0  0  0  0  0  0  0  0  0  0  0  0
    0.7268    1.7818    2.5064 O   0  0  0  0  0  0  0  0  0  0  0  0
   -8.2180   -1.0756    0.6200 O   0  0  0  0  0  0  0  0  0  0  0  0
    6.0299    0.5833   -1.3224 O   0  0  0  0  0  0  0  0  0  0  0  0
    5.6417   -0.3743    2.2315 O   0  0  0  0  0  0  0  0  0  0  0  0
    6.1586   -2.8908    0.9477 O   0  0  0  0  0  0  0  0  0  0  0  0
   -8.9562    0.9794   -0.1064 O   0  0  0  0  0  0  0  0  0  0  0  0
   -3.1649    0.4700   -0.4519 C   0  0  1  0  0  0  0  0  0  0  0  0
   -1.7806    0.9731    0.0435 C   0  0  1  0  0  0  0  0  0  0  0  0
   -0.6636   -0.1076   -0.0420 C   0  0  1  0  0  0  0  0  0  0  0  0
   -3.5955   -0.8891    0.1655 C   0  0  2  0  0  0  0  0  0  0  0  0
    0.7061    0.4236    0.5027 C   0  0  2  0  0  0  0  0  0  0  0  0
    1.0826    1.7254   -0.2627 C   0  0  1  0  0  0  0  0  0  0  0  0
   -1.1175   -1.4219    0.6193 C   0  0  0  0  0  0  0  0  0  0  0  0
   -2.4430   -1.9227    0.0526 C   0  0  0  0  0  0  0  0  0  0  0  0
   -4.7654   -1.3518   -0.7646 C   0  0  2  0  0  0  0  0  0  0  0  0
   -1.3457    2.2664   -0.6785 C   0  0  0  0  0  0  0  0  0  0  0  0
   -3.2595    0.2082   -1.9643 C   0  0  0  0  0  0  0  0  0  0  0  0
   -0.0044    2.8000   -0.1832 C   0  0  0  0  0  0  0  0  0  0  0  0
   -4.4360   -0.7575   -2.1487 C   0  0  0  0  0  0  0  0  0  0  0  0
    1.8466   -0.6136    0.3184 C   0  0  0  0  0  0  0  0  0  0  0  0
    2.4558    2.2787    0.1481 C   0  0  0  0  0  0  0  0  0  0  0  0
   -4.0189   -0.7776    1.6448 C   0  0  0  0  0  0  0  0  0  0  0  0
    3.2187   -0.0471    0.7043 C   0  0  2  0  0  0  0  0  0  0  0  0
    3.5331    1.2217   -0.0780 C   0  0  2  0  0  0  0  0  0  0  0  0
    0.5751    0.6781    1.9932 C   0  0  0  0  0  0  0  0  0  0  0  0
   -6.1525   -0.9465   -0.3587 C   0  0  0  0  0  0  0  0  0  0  0  0
    5.5372   -0.5529    0.8153 C   0  0  2  0  0  0  0  0  0  0  0  0
    5.8516    0.7712    0.0864 C   0  0  2  0  0  0  0  0  0  0  0  0
   -7.0069   -1.8234    0.4674 C   0  0  0  0  0  0  0  0  0  0  0  0
   -6.7785    0.1874   -0.6627 C   0  0  0  0  0  0  0  0  0  0  0  0
    6.5656   -1.6262    0.4305 C   0  0  2  0  0  0  0  0  0  0  0  0
   -8.1014    0.1129   -0.0407 C   0  0  0  0  0  0  0  0  0  0  0  0
    6.7350   -1.7190   -1.0823 C   0  0  0  0  0  0  0  0  0  0  0  0
    7.0681   -0.3412   -1.6481 C   0  0  1  0  0  0  0  0  0  0  0  0
    7.1877   -0.3873   -3.1649 C   0  0  0  0  0  0  0  0  0  0  0  0
   -1.9082    1.2466    1.1007 H   0  0  0  0  0  0  0  0  0  0  0  0
   -0.5043   -0.3339   -1.1061 H   0  0  0  0  0  0  0  0  0  0  0  0
    1.1669    1.4564   -1.3277 H   0  0  0  0  0  0  0  0  0  0  0  0
   -1.2176   -1.3092    1.7023 H   0  0  0  0  0  0  0  0  0  0  0  0
   -0.3703   -2.2057    0.4551 H   0  0  0  0  0  0  0  0  0  0  0  0
   -2.2796   -2.2098   -0.9941 H   0  0  0  0  0  0  0  0  0  0  0  0
   -2.7244   -2.8496    0.5692 H   0  0  0  0  0  0  0  0  0  0  0  0
   -4.7694   -2.4468   -0.8546 H   0  0  0  0  0  0  0  0  0  0  0  0
   -2.0957    3.0534   -0.5431 H   0  0  0  0  0  0  0  0  0  0  0  0
   -1.2710    2.0840   -1.7575 H   0  0  0  0  0  0  0  0  0  0  0  0
   -2.3510   -0.2552   -2.3621 H   0  0  0  0  0  0  0  0  0  0  0  0
   -3.4384    1.1249   -2.5369 H   0  0  0  0  0  0  0  0  0  0  0  0
    0.2817    3.6542   -0.8101 H   0  0  0  0  0  0  0  0  0  0  0  0
   -0.1187    3.2003    0.8283 H   0  0  0  0  0  0  0  0  0  0  0  0
   -5.2678   -0.2719   -2.6679 H   0  0  0  0  0  0  0  0  0  0  0  0
   -4.1169   -1.5651   -2.8211 H   0  0  0  0  0  0  0  0  0  0  0  0
    1.8767   -0.9618   -0.7227 H   0  0  0  0  0  0  0  0  0  0  0  0
    1.6738   -1.5105    0.9260 H   0  0  0  0  0  0  0  0  0  0  0  0
    2.6981    3.1593   -0.4617 H   0  0  0  0  0  0  0  0  0  0  0  0
    2.4845    2.6395    1.1810 H   0  0  0  0  0  0  0  0  0  0  0  0
   -3.1987   -0.4146    2.2721 H   0  0  0  0  0  0  0  0  0  0  0  0
   -4.8487   -0.0806    1.7970 H   0  0  0  0  0  0  0  0  0  0  0  0
   -4.3206   -1.7535    2.0402 H   0  0  0  0  0  0  0  0  0  0  0  0
    3.2278    0.1562    1.7825 H   0  0  0  0  0  0  0  0  0  0  0  0
    3.5892    1.0024   -1.1527 H   0  0  0  0  0  0  0  0  0  0  0  0
    0.3691   -0.1978    2.6297 H   0  0  0  0  0  0  0  0  0  0  0  0
   -4.0434    2.2175   -0.7136 H   0  0  0  0  0  0  0  0  0  0  0  0
    6.7678    1.2181    0.4911 H   0  0  0  0  0  0  0  0  0  0  0  0
   -7.2361   -2.7680   -0.0346 H   0  0  0  0  0  0  0  0  0  0  0  0
   -6.5921   -2.0235    1.4576 H   0  0  0  0  0  0  0  0  0  0  0  0
   -6.4429    1.0287   -1.2432 H   0  0  0  0  0  0  0  0  0  0  0  0
    7.5334   -1.3957    0.8926 H   0  0  0  0  0  0  0  0  0  0  0  0
    7.5189   -2.4455   -1.3267 H   0  0  0  0  0  0  0  0  0  0  0  0
    5.8088   -2.1039   -1.5293 H   0  0  0  0  0  0  0  0  0  0  0  0
    8.0140    0.0273   -1.2314 H   0  0  0  0  0  0  0  0  0  0  0  0
    5.3999    0.5439    2.4395 H   0  0  0  0  0  0  0  0  0  0  0  0
    5.2824   -3.0936    0.5776 H   0  0  0  0  0  0  0  0  0  0  0  0
    7.4129    0.6094   -3.5597 H   0  0  0  0  0  0  0  0  0  0  0  0
    7.9781   -1.0746   -3.4814 H   0  0  0  0  0  0  0  0  0  0  0  0
    6.2437   -0.7005   -3.6246 H   0  0  0  0  0  0  0  0  0  0  0  0
  1 10  1  0  0  0  0
  1 65  1  0  0  0  0
  2 26  1  0  0  0  0
  2 30  1  0  0  0  0
  3 27  1  0  0  0  0
  3 31  1  0  0  0  0
  4 28  2  0  0  0  0
  5 32  1  0  0  0  0
  5 35  1  0  0  0  0
  6 31  1  0  0  0  0
  6 37  1  0  0  0  0
  7 30  1  0  0  0  0
  7 74  1  0  0  0  0
  8 34  1  0  0  0  0
  8 75  1  0  0  0  0
  9 35  2  0  0  0  0
 10 11  1  0  0  0  0
 10 13  1  0  0  0  0
 10 20  1  0  0  0  0
 11 12  1  0  0  0  0
 11 19  1  0  0  0  0
 11 39  1  0  0  0  0
 12 14  1  0  0  0  0
 12 16  1  0  0  0  0
 12 40  1  0  0  0  0
 13 17  1  0  0  0  0
 13 18  1  0  0  0  0
 13 25  1  0  0  0  0
 14 15  1  0  0  0  0
 14 23  1  0  0  0  0
 14 28  1  0  0  0  0
 15 21  1  0  0  0  0
 15 24  1  0  0  0  0
 15 41  1  0  0  0  0
 16 17  1  0  0  0  0
 16 42  1  0  0  0  0
 16 43  1  0  0  0  0
 17 44  1  0  0  0  0
 17 45  1  0  0  0  0
 18 22  1  0  0  0  0
 18 29  1  0  0  0  0
 18 46  1  0  0  0  0
 19 21  1  0  0  0  0
 19 47  1  0  0  0  0
 19 48  1  0  0  0  0
 20 22  1  0  0  0  0
 20 49  1  0  0  0  0
 20 50  1  0  0  0  0
 21 51  1  0  0  0  0
 21 52  1  0  0  0  0
 22 53  1  0  0  0  0
 22 54  1  0  0  0  0
 23 26  1  0  0  0  0
 23 55  1  0  0  0  0
 23 56  1  0  0  0  0
 24 27  1  0  0  0  0
 24 57  1  0  0  0  0
 24 58  1  0  0  0  0
 25 59  1  0  0  0  0
 25 60  1  0  0  0  0
 25 61  1  0  0  0  0
 26 27  1  0  0  0  0
 26 62  1  0  0  0  0
 27 63  1  0  0  0  0
 28 64  1  0  0  0  0
 29 32  1  0  0  0  0
 29 33  2  0  0  0  0
 30 31  1  0  0  0  0
 30 34  1  0  0  0  0
 31 66  1  0  0  0  0
 32 67  1  0  0  0  0
 32 68  1  0  0  0  0
 33 35  1  0  0  0  0
 33 69  1  0  0  0  0
 34 36  1  0  0  0  0
 34 70  1  0  0  0  0
 36 37  1  0  0  0  0
 36 71  1  0  0  0  0
 36 72  1  0  0  0  0
 37 38  1  0  0  0  0
 37 73  1  0  0  0  0
 38 76  1  0  0  0  0
 38 77  1  0  0  0  0
 38 78  1  0  0  0  0
M  END
> <PUBCHEM_COMPOUND_CID>
16142

> <PUBCHEM_CONFORMER_RMSD>
1

> <PUBCHEM_CONFORMER_DIVERSEORDER>
2
1

> <PUBCHEM_MMFF94_PARTIAL_CHARGES>
28
1 -0.68
10 0.28
14 0.06
18 0.14
2 -0.56
26 0.28
27 0.28
28 0.45
29 -0.28
3 -0.56
30 0.56
31 0.56
32 0.42
33 -0.14
34 0.28
35 0.71
37 0.28
4 -0.57
5 -0.43
6 -0.56
64 0.06
65 0.4
69 0.15
7 -0.68
74 0.4
75 0.4
8 -0.68
9 -0.57

> <PUBCHEM_EFFECTIVE_ROTOR_COUNT>
5.4

> <PUBCHEM_PHARMACOPHORE_FEATURES>
18
1 1 acceptor
1 1 donor
1 2 acceptor
1 3 acceptor
1 4 acceptor
1 6 acceptor
1 7 acceptor
1 7 donor
1 8 acceptor
1 8 donor
1 9 acceptor
5 10 13 18 20 22 rings
5 5 29 32 33 35 rings
6 10 11 12 13 16 17 rings
6 11 12 14 15 19 21 rings
6 14 15 23 24 26 27 rings
6 2 3 26 27 30 31 rings
6 6 30 31 34 36 37 rings

> <PUBCHEM_HEAVY_ATOM_COUNT>
38

> <PUBCHEM_ATOM_DEF_STEREO_COUNT>
13

> <PUBCHEM_ATOM_UDEF_STEREO_COUNT>
0

> <PUBCHEM_BOND_DEF_STEREO_COUNT>
0

> <PUBCHEM_BOND_UDEF_STEREO_COUNT>
0

> <PUBCHEM_ISOTOPIC_ATOM_COUNT>
0

> <PUBCHEM_COMPONENT_COUNT>
1

> <PUBCHEM_CACTVS_TAUTO_COUNT>
1

> <PUBCHEM_CONFORMER_ID>
00003F0E00000002

> <PUBCHEM_MMFF94_ENERGY>
125.6713

> <PUBCHEM_FEATURE_SELFOVERLAP>
91.773

> <PUBCHEM_SHAPE_FINGERPRINT>
10 15 12031784773591223710
10076449 9 17313107467180035285
10299344 5 18186801379178228039
10533779 1 11459294392685149854
10533779 47 16128390293779917039
10674148 151 18408039615424431305
11331351 85 17775284975891410497
11456790 92 17560813152062555499
117089 54 17913782622376503478
11828422 8 17055257872293008065
12166972 35 18343864446058076712
12373685 5 12607398871755573005
12422481 6 13542468648888755448
12539765 74 12035994756411620913
12592606 108 18341608257499776591
13383668 40 17059509404662955037
13673619 4 18273493468238994744
13685833 64 18335417984890290643
13782708 43 17988917911650298959
13811026 1 18201718436294535653
13914758 101 16343707621270650923
14117953 113 18273214192912871871
14347332 77 18338514136952265492
14347424 109 14764342752402970362
14444916 359 18113338609660551635
14856354 85 18260268586495407327
15064986 266 18334582312903528544
15082195 135 17676215697690911076
15131766 46 14762627604304927824
15183329 4 18260831497013108698
15301273 46 17704075083679293125
15320295 40 15195279816834786129
15361156 5 17386293198560427427
15439362 3 17972602366292072220
15684393 108 17967817137342923126
16628084 112 18042113263518578971
16728433 281 15648709564713361631
16994733 274 12685079376979270127
18365409 1 14057299630902163851
18608769 82 16877942767928995419
20105231 36 17894353289698024051
20511986 3 10663825161411614437
21130935 74 18268987756062565211
21150785 3 16443346485422831310
21267235 1 18407760343960764561
21781051 124 18041288754573247427
22224240 67 9079117756595556301
23516275 100 14201691922201257150
23522609 53 18119839970207437900
23559900 14 18265887133087484049
3004659 81 18259701203565705712
335352 9 18335136514878648903
3383291 50 18335131016688189795
3418910 222 12901543512864395439
34797466 226 15936408944608288294
350125 39 18409443700879733809
3552219 110 17022908922165238317
3918712 181 7925616796877617798
4093350 32 17631733893404977960
4098825 35 17603580786379464831
4149490 64 15647048266604018776
4258327 124 15141259757514584510
439807 62 18260830371758180782
504579 68 17822296773612211766
5265222 85 16298393495567910523
5372103 7 15358843261298566692
5381727 24 17060338544943995407
5470011 282 17385445410201540926
57527293 21 14045444649857183896
6004065 56 9799686022306263951
6081469 158 16917073234971575605
6201320 215 15625398809960314939
86090 222 17060074622923799846
9896288 288 17915467099796347521

> <PUBCHEM_SHAPE_MULTIPOLES>
729.2
23.62
2.28
1.83
8.24
0.46
0.51
-9.9
5.79
-1.19
-0.26
-2.46
-0.15
0.35

> <PUBCHEM_SHAPE_SELFOVERLAP>
1600.099

> <PUBCHEM_SHAPE_VOLUME>
386.4

> <PUBCHEM_COORDINATE_TYPE>
2
5
10

$$$$
