100998320
  -OEChem-11212001443D

 84 88  0     1  0  0  0  0  0999 V2000
   -5.4881   -0.8599   -0.4025 O   0  0  0  0  0  0  0  0  0  0  0  0
   -7.1089   -1.8704    0.8971 O   0  0  0  0  0  0  0  0  0  0  0  0
    0.1959    1.1187   -0.3579 C   0  0  2  0  0  0  0  0  0  0  0  0
   -0.5927   -0.1810    0.0526 C   0  0  1  0  0  0  0  0  0  0  0  0
   -2.1719   -0.2121   -0.1800 C   0  0  2  0  0  0  0  0  0  0  0  0
    1.6782    1.0626    0.3320 C   0  0  1  0  0  0  0  0  0  0  0  0
   -2.7733    1.1273    0.3675 C   0  0  1  0  0  0  0  0  0  0  0  0
   -0.5934    2.3734    0.1029 C   0  0  0  0  0  0  0  0  0  0  0  0
   -2.0784    2.3522   -0.2587 C   0  0  0  0  0  0  0  0  0  0  0  0
   -4.3508    1.2185    0.3890 C   0  0  0  0  0  0  0  0  0  0  0  0
    2.3702   -0.3040    0.0750 C   0  0  0  0  0  0  0  0  0  0  0  0
    0.1506   -1.4290   -0.4601 C   0  0  0  0  0  0  0  0  0  0  0  0
    3.8954   -0.3776    0.3289 C   0  0  2  0  0  0  0  0  0  0  0  0
   -2.7655   -1.4086    0.6468 C   0  0  0  0  0  0  0  0  0  0  0  0
    2.5589    2.2371   -0.1952 C   0  0  0  0  0  0  0  0  0  0  0  0
    4.6908    0.8282   -0.2787 C   0  0  1  0  0  0  0  0  0  0  0  0
    0.3533    1.2092   -1.9062 C   0  0  0  0  0  0  0  0  0  0  0  0
    4.0330    2.1485    0.1960 C   0  0  0  0  0  0  0  0  0  0  0  0
   -4.9958   -0.1619    0.7381 C   0  0  2  0  0  0  0  0  0  0  0  0
   -2.5511   -0.4530   -1.6611 C   0  0  0  0  0  0  0  0  0  0  0  0
    1.6356   -1.3861   -0.2527 C   0  0  0  0  0  0  0  0  0  0  0  0
   -4.0221   -1.0851    1.4634 C   0  0  0  0  0  0  0  0  0  0  0  0
    1.5956    1.2247    1.8839 C   0  0  0  0  0  0  0  0  0  0  0  0
    4.6152   -1.7545    0.1074 C   0  0  2  0  0  0  0  0  0  0  0  0
    6.1472    0.8152    0.2676 C   0  0  0  0  0  0  0  0  0  0  0  0
   -4.7451    2.1968    1.5346 C   0  0  0  0  0  0  0  0  0  0  0  0
   -4.9459    1.8132   -0.9049 C   0  0  0  0  0  0  0  0  0  0  0  0
    4.7192    0.8258   -1.8240 C   0  0  0  0  0  0  0  0  0  0  0  0
    6.8715   -0.5215    0.1019 C   0  0  0  0  0  0  0  0  0  0  0  0
    6.0416   -1.6642    0.6264 C   0  0  0  0  0  0  0  0  0  0  0  0
    4.6195   -2.3180   -1.3225 C   0  0  0  0  0  0  0  0  0  0  0  0
    6.5258   -2.5320    1.5286 C   0  0  0  0  0  0  0  0  0  0  0  0
   -6.5538   -1.6845   -0.1774 C   0  0  0  0  0  0  0  0  0  0  0  0
   -6.9607   -2.3480   -1.4580 C   0  0  0  0  0  0  0  0  0  0  0  0
   -0.5137   -0.2279    1.1463 H   0  0  0  0  0  0  0  0  0  0  0  0
   -2.4750    1.1502    1.4289 H   0  0  0  0  0  0  0  0  0  0  0  0
   -0.1434    3.2832   -0.3121 H   0  0  0  0  0  0  0  0  0  0  0  0
   -0.5447    2.4819    1.1903 H   0  0  0  0  0  0  0  0  0  0  0  0
   -2.5200    3.2779    0.1261 H   0  0  0  0  0  0  0  0  0  0  0  0
   -2.2072    2.3836   -1.3444 H   0  0  0  0  0  0  0  0  0  0  0  0
   -0.0127   -1.5845   -1.5304 H   0  0  0  0  0  0  0  0  0  0  0  0
   -0.2331   -2.3211    0.0474 H   0  0  0  0  0  0  0  0  0  0  0  0
    3.9669   -0.2406    1.4207 H   0  0  0  0  0  0  0  0  0  0  0  0
   -2.0291   -1.7957    1.3619 H   0  0  0  0  0  0  0  0  0  0  0  0
   -2.9813   -2.2542   -0.0197 H   0  0  0  0  0  0  0  0  0  0  0  0
    2.1641    3.1925    0.1724 H   0  0  0  0  0  0  0  0  0  0  0  0
    2.5244    2.3048   -1.2848 H   0  0  0  0  0  0  0  0  0  0  0  0
   -0.5747    1.0336   -2.4420 H   0  0  0  0  0  0  0  0  0  0  0  0
    1.0831    0.4943   -2.2974 H   0  0  0  0  0  0  0  0  0  0  0  0
    0.6750    2.2082   -2.2199 H   0  0  0  0  0  0  0  0  0  0  0  0
    4.1334    2.2571    1.2826 H   0  0  0  0  0  0  0  0  0  0  0  0
    4.5639    3.0081   -0.2341 H   0  0  0  0  0  0  0  0  0  0  0  0
   -5.8410    0.0316    1.4121 H   0  0  0  0  0  0  0  0  0  0  0  0
   -2.4568    0.4374   -2.2817 H   0  0  0  0  0  0  0  0  0  0  0  0
   -3.5869   -0.7770   -1.7729 H   0  0  0  0  0  0  0  0  0  0  0  0
   -1.9595   -1.2482   -2.1199 H   0  0  0  0  0  0  0  0  0  0  0  0
    2.1073   -2.3540   -0.3814 H   0  0  0  0  0  0  0  0  0  0  0  0
   -4.5073   -2.0322    1.7281 H   0  0  0  0  0  0  0  0  0  0  0  0
   -3.7226   -0.6224    2.4122 H   0  0  0  0  0  0  0  0  0  0  0  0
    1.2568    2.2246    2.1720 H   0  0  0  0  0  0  0  0  0  0  0  0
    2.5675    1.0969    2.3711 H   0  0  0  0  0  0  0  0  0  0  0  0
    0.9328    0.4945    2.3547 H   0  0  0  0  0  0  0  0  0  0  0  0
    4.0757   -2.4856    0.7274 H   0  0  0  0  0  0  0  0  0  0  0  0
    6.1336    1.0601    1.3390 H   0  0  0  0  0  0  0  0  0  0  0  0
    6.7371    1.6046   -0.2159 H   0  0  0  0  0  0  0  0  0  0  0  0
   -5.8341    2.3078    1.6015 H   0  0  0  0  0  0  0  0  0  0  0  0
   -4.3324    3.1984    1.3789 H   0  0  0  0  0  0  0  0  0  0  0  0
   -4.3907    1.8383    2.5077 H   0  0  0  0  0  0  0  0  0  0  0  0
   -6.0412    1.8301   -0.8534 H   0  0  0  0  0  0  0  0  0  0  0  0
   -4.6730    1.2393   -1.7929 H   0  0  0  0  0  0  0  0  0  0  0  0
   -4.6213    2.8465   -1.0669 H   0  0  0  0  0  0  0  0  0  0  0  0
    3.7356    0.6164   -2.2553 H   0  0  0  0  0  0  0  0  0  0  0  0
    5.4167    0.0947   -2.2345 H   0  0  0  0  0  0  0  0  0  0  0  0
    5.0463    1.7995   -2.2080 H   0  0  0  0  0  0  0  0  0  0  0  0
    7.8347   -0.4635    0.6241 H   0  0  0  0  0  0  0  0  0  0  0  0
    7.1132   -0.6946   -0.9521 H   0  0  0  0  0  0  0  0  0  0  0  0
    5.5007   -2.0264   -1.9005 H   0  0  0  0  0  0  0  0  0  0  0  0
    4.6364   -3.4141   -1.2828 H   0  0  0  0  0  0  0  0  0  0  0  0
    3.7380   -2.0279   -1.8989 H   0  0  0  0  0  0  0  0  0  0  0  0
    5.9190   -3.3453    1.9121 H   0  0  0  0  0  0  0  0  0  0  0  0
    7.5410   -2.4501    1.9023 H   0  0  0  0  0  0  0  0  0  0  0  0
   -7.2605   -1.5916   -2.1876 H   0  0  0  0  0  0  0  0  0  0  0  0
   -7.8118   -3.0088   -1.2702 H   0  0  0  0  0  0  0  0  0  0  0  0
   -6.1322   -2.9477   -1.8432 H   0  0  0  0  0  0  0  0  0  0  0  0
  1 19  1  0  0  0  0
  1 33  1  0  0  0  0
  2 33  2  0  0  0  0
  3  4  1  0  0  0  0
  3  6  1  0  0  0  0
  3  8  1  0  0  0  0
  3 17  1  0  0  0  0
  4  5  1  0  0  0  0
  4 12  1  0  0  0  0
  4 35  1  0  0  0  0
  5  7  1  0  0  0  0
  5 14  1  0  0  0  0
  5 20  1  0  0  0  0
  6 11  1  0  0  0  0
  6 15  1  0  0  0  0
  6 23  1  0  0  0  0
  7  9  1  0  0  0  0
  7 10  1  0  0  0  0
  7 36  1  0  0  0  0
  8  9  1  0  0  0  0
  8 37  1  0  0  0  0
  8 38  1  0  0  0  0
  9 39  1  0  0  0  0
  9 40  1  0  0  0  0
 10 19  1  0  0  0  0
 10 26  1  0  0  0  0
 10 27  1  0  0  0  0
 11 13  1  0  0  0  0
 11 21  2  0  0  0  0
 12 21  1  0  0  0  0
 12 41  1  0  0  0  0
 12 42  1  0  0  0  0
 13 16  1  0  0  0  0
 13 24  1  0  0  0  0
 13 43  1  0  0  0  0
 14 22  1  0  0  0  0
 14 44  1  0  0  0  0
 14 45  1  0  0  0  0
 15 18  1  0  0  0  0
 15 46  1  0  0  0  0
 15 47  1  0  0  0  0
 16 18  1  0  0  0  0
 16 25  1  0  0  0  0
 16 28  1  0  0  0  0
 17 48  1  0  0  0  0
 17 49  1  0  0  0  0
 17 50  1  0  0  0  0
 18 51  1  0  0  0  0
 18 52  1  0  0  0  0
 19 22  1  0  0  0  0
 19 53  1  0  0  0  0
 20 54  1  0  0  0  0
 20 55  1  0  0  0  0
 20 56  1  0  0  0  0
 21 57  1  0  0  0  0
 22 58  1  0  0  0  0
 22 59  1  0  0  0  0
 23 60  1  0  0  0  0
 23 61  1  0  0  0  0
 23 62  1  0  0  0  0
 24 30  1  0  0  0  0
 24 31  1  0  0  0  0
 24 63  1  0  0  0  0
 25 29  1  0  0  0  0
 25 64  1  0  0  0  0
 25 65  1  0  0  0  0
 26 66  1  0  0  0  0
 26 67  1  0  0  0  0
 26 68  1  0  0  0  0
 27 69  1  0  0  0  0
 27 70  1  0  0  0  0
 27 71  1  0  0  0  0
 28 72  1  0  0  0  0
 28 73  1  0  0  0  0
 28 74  1  0  0  0  0
 29 30  1  0  0  0  0
 29 75  1  0  0  0  0
 29 76  1  0  0  0  0
 30 32  2  0  0  0  0
 31 77  1  0  0  0  0
 31 78  1  0  0  0  0
 31 79  1  0  0  0  0
 32 80  1  0  0  0  0
 32 81  1  0  0  0  0
 33 34  1  0  0  0  0
 34 82  1  0  0  0  0
 34 83  1  0  0  0  0
 34 84  1  0  0  0  0
M  END
> <PUBCHEM_COMPOUND_CID>
100998320

> <PUBCHEM_CONFORMER_RMSD>
0.8

> <PUBCHEM_CONFORMER_DIVERSEORDER>
1

> <PUBCHEM_MMFF94_PARTIAL_CHARGES>
17
1 -0.43
11 -0.28
12 0.14
13 0.14
19 0.28
2 -0.57
21 -0.29
24 0.14
29 0.14
30 -0.28
32 -0.3
33 0.66
34 0.06
57 0.15
6 0.14
80 0.15
81 0.15

> <PUBCHEM_EFFECTIVE_ROTOR_COUNT>
4.4

> <PUBCHEM_PHARMACOPHORE_FEATURES>
7
1 2 acceptor
3 10 26 27 hydrophobe
6 13 16 24 25 29 30 rings
6 3 4 5 7 8 9 rings
6 3 4 6 11 12 21 rings
6 5 7 10 14 19 22 rings
6 6 11 13 15 16 18 rings

> <PUBCHEM_HEAVY_ATOM_COUNT>
34

> <PUBCHEM_ATOM_DEF_STEREO_COUNT>
9

> <PUBCHEM_ATOM_UDEF_STEREO_COUNT>
0

> <PUBCHEM_BOND_DEF_STEREO_COUNT>
0

> <PUBCHEM_BOND_UDEF_STEREO_COUNT>
0

> <PUBCHEM_ISOTOPIC_ATOM_COUNT>
0

> <PUBCHEM_COMPONENT_COUNT>
1

> <PUBCHEM_CACTVS_TAUTO_COUNT>
2

> <PUBCHEM_CONFORMER_ID>
06051CB000000001

> <PUBCHEM_MMFF94_ENERGY>
151.122

> <PUBCHEM_FEATURE_SELFOVERLAP>
35.578

> <PUBCHEM_SHAPE_FINGERPRINT>
11578080 2 13191777310659249182
11963148 33 18339918225912427478
12107698 1 18342175596397856755
12166972 35 18334296513327423533
12236239 1 18260831475527949932
12422481 6 18200319809995730676
12516196 113 18343302578182894416
12633257 1 17275105063104049204
12788726 201 17703240533607534088
13533116 47 18339642346870953401
13685833 64 18409168826629590131
13782708 43 18411420600615455707
13811026 1 18408881823956187874
14068700 675 18059293279574940169
14251764 18 18412826910679221034
14341114 176 18334863783901666120
14347332 77 18411417293532777405
15082195 135 17896329180232553932
15183329 4 18409173199148741096
15196674 1 18410858741541490569
15361156 5 18263661600850559244
15439362 3 17836928894235599077
1577012 14 18410300198224703312
17349148 13 15051737490684499721
17492 89 18194682558642270594
17857418 61 18408324359060768192
17899979 129 16960387186617885997
1813 80 17312825983007144940
1979834 28 17703792479933701574
19958102 18 17676204671665940419
20028762 73 18342455928597632774
21130935 74 18271524204828596186
21236236 1 18410857651284188857
21267235 1 18411142449858704781
21279426 13 18337955575796018452
22149856 69 17845949441209180554
23081809 10 18334021583363523892
23522609 53 18193308275743605524
23559900 14 18334852814144086344
23569914 152 12759636091684649234
23569943 247 17678167192610818234
3004659 81 18336553725210825614
32027 91 17271184020088345359
3383291 50 18409164428747363387
34797466 226 17060065886495809052
350125 39 18409449155409266756
3633792 109 18113890577450415063
392239 28 18339370673183809377
4073 2 17895483634594999872
4112364 45 15194705957358224970
4340502 62 14045745932768902708
439807 62 18408042927223628099
5104073 3 18413390925579070584
6081469 158 18040427798809378031
6086070 43 18041823039988593117
9996256 80 18341894099698513183

> <PUBCHEM_SHAPE_MULTIPOLES>
687.97
18.27
2.88
1.45
3.59
0.04
-0.15
10.56
1.52
0.5
0.07
0.2
0.08
-1.23

> <PUBCHEM_SHAPE_SELFOVERLAP>
1450.251

> <PUBCHEM_SHAPE_VOLUME>
381.7

> <PUBCHEM_COORDINATE_TYPE>
2
5
10

$$$$
