120728
  -OEChem-11212001473D

 82 87  0     1  0  0  0  0  0999 V2000
   -3.9072   -0.9324   -1.2278 O   0  0  0  0  0  0  0  0  0  0  0  0
    1.7144    2.3739   -2.2327 O   0  0  0  0  0  0  0  0  0  0  0  0
    3.9402   -0.0208    0.4187 O   0  0  0  0  0  0  0  0  0  0  0  0
   -8.3485    0.0854   -0.0977 O   0  0  0  0  0  0  0  0  0  0  0  0
    5.6306   -1.3255    1.4428 O   0  0  0  0  0  0  0  0  0  0  0  0
   -8.4797   -1.9385   -1.1850 O   0  0  0  0  0  0  0  0  0  0  0  0
    5.5154    2.2803    0.7603 O   0  0  0  0  0  0  0  0  0  0  0  0
    5.8900    0.6177   -1.4823 O   0  0  0  0  0  0  0  0  0  0  0  0
    7.9226   -1.3031   -1.4409 O   0  0  0  0  0  0  0  0  0  0  0  0
   -3.0736   -0.3953   -0.1894 C   0  0  1  0  0  0  0  0  0  0  0  0
   -1.6963   -0.0332   -0.8167 C   0  0  1  0  0  0  0  0  0  0  0  0
   -0.7751    0.7760    0.1436 C   0  0  1  0  0  0  0  0  0  0  0  0
   -3.8038    0.8158    0.4538 C   0  0  2  0  0  0  0  0  0  0  0  0
    0.6164    1.1373   -0.5086 C   0  0  2  0  0  0  0  0  0  0  0  0
    1.3007   -0.1635   -1.0400 C   0  0  2  0  0  0  0  0  0  0  0  0
   -1.5310    1.9981    0.6994 C   0  0  0  0  0  0  0  0  0  0  0  0
   -2.8381    1.5999    1.3810 C   0  0  0  0  0  0  0  0  0  0  0  0
   -4.9028    0.1370    1.3323 C   0  0  2  0  0  0  0  0  0  0  0  0
   -0.9737   -1.2783   -1.3690 C   0  0  0  0  0  0  0  0  0  0  0  0
   -3.0199   -1.4283    0.9525 C   0  0  0  0  0  0  0  0  0  0  0  0
    0.3820   -0.9502   -1.9854 C   0  0  0  0  0  0  0  0  0  0  0  0
   -4.2411   -1.1571    1.8424 C   0  0  0  0  0  0  0  0  0  0  0  0
    1.5869    1.8221    0.4994 C   0  0  0  0  0  0  0  0  0  0  0  0
    1.8111   -1.0804    0.0978 C   0  0  0  0  0  0  0  0  0  0  0  0
   -4.3971    1.7904   -0.5850 C   0  0  0  0  0  0  0  0  0  0  0  0
    0.4411    2.1403   -1.6795 C   0  0  0  0  0  0  0  0  0  0  0  0
    2.0637    0.9084    1.6269 C   0  0  0  0  0  0  0  0  0  0  0  0
    2.7229   -0.3543    1.0826 C   0  0  2  0  0  0  0  0  0  0  0  0
   -6.1983   -0.1806    0.6420 C   0  0  0  0  0  0  0  0  0  0  0  0
   -7.3374    0.7595    0.6589 C   0  0  0  0  0  0  0  0  0  0  0  0
   -6.4944   -1.2826   -0.0417 C   0  0  0  0  0  0  0  0  0  0  0  0
    5.0433   -0.0263    1.3209 C   0  0  1  0  0  0  0  0  0  0  0  0
   -7.8688   -1.1211   -0.5184 C   0  0  0  0  0  0  0  0  0  0  0  0
    6.1051    0.9944    0.8960 C   0  0  1  0  0  0  0  0  0  0  0  0
    6.8138    0.5778   -0.3940 C   0  0  1  0  0  0  0  0  0  0  0  0
    6.2434   -1.8011    0.2369 C   0  0  1  0  0  0  0  0  0  0  0  0
    7.3548   -0.8447   -0.2203 C   0  0  1  0  0  0  0  0  0  0  0  0
    6.7883   -3.1969    0.5259 C   0  0  0  0  0  0  0  0  0  0  0  0
   -1.9080    0.6019   -1.6875 H   0  0  0  0  0  0  0  0  0  0  0  0
   -0.5676    0.1309    1.0051 H   0  0  0  0  0  0  0  0  0  0  0  0
    2.1915    0.1073   -1.6231 H   0  0  0  0  0  0  0  0  0  0  0  0
   -1.7409    2.7222   -0.0933 H   0  0  0  0  0  0  0  0  0  0  0  0
   -0.9208    2.5183    1.4444 H   0  0  0  0  0  0  0  0  0  0  0  0
   -2.5891    1.0118    2.2733 H   0  0  0  0  0  0  0  0  0  0  0  0
   -3.3359    2.5039    1.7556 H   0  0  0  0  0  0  0  0  0  0  0  0
   -5.1464    0.7660    2.1991 H   0  0  0  0  0  0  0  0  0  0  0  0
   -0.8398   -2.0219   -0.5758 H   0  0  0  0  0  0  0  0  0  0  0  0
   -1.5950   -1.7593   -2.1342 H   0  0  0  0  0  0  0  0  0  0  0  0
   -2.1131   -1.3362    1.5583 H   0  0  0  0  0  0  0  0  0  0  0  0
   -3.0594   -2.4542    0.5694 H   0  0  0  0  0  0  0  0  0  0  0  0
    0.8720   -1.8835   -2.2899 H   0  0  0  0  0  0  0  0  0  0  0  0
    0.2271   -0.3829   -2.9105 H   0  0  0  0  0  0  0  0  0  0  0  0
   -4.9025   -2.0279    1.8992 H   0  0  0  0  0  0  0  0  0  0  0  0
   -3.8890   -0.9988    2.8705 H   0  0  0  0  0  0  0  0  0  0  0  0
    2.4851    2.1816   -0.0181 H   0  0  0  0  0  0  0  0  0  0  0  0
    1.1337    2.7204    0.9321 H   0  0  0  0  0  0  0  0  0  0  0  0
    0.9726   -1.5143    0.6530 H   0  0  0  0  0  0  0  0  0  0  0  0
    2.3624   -1.9176   -0.3496 H   0  0  0  0  0  0  0  0  0  0  0  0
   -4.9069    2.6235   -0.0882 H   0  0  0  0  0  0  0  0  0  0  0  0
   -5.1163    1.3170   -1.2597 H   0  0  0  0  0  0  0  0  0  0  0  0
   -3.6191    2.2219   -1.2227 H   0  0  0  0  0  0  0  0  0  0  0  0
   -0.2180    1.7699   -2.4676 H   0  0  0  0  0  0  0  0  0  0  0  0
    0.0487    3.0999   -1.3295 H   0  0  0  0  0  0  0  0  0  0  0  0
    2.7676    1.4725    2.2492 H   0  0  0  0  0  0  0  0  0  0  0  0
    1.2204    0.6393    2.2725 H   0  0  0  0  0  0  0  0  0  0  0  0
    2.9274   -1.0486    1.9089 H   0  0  0  0  0  0  0  0  0  0  0  0
   -3.8473   -0.3518   -2.0046 H   0  0  0  0  0  0  0  0  0  0  0  0
   -7.1195    1.7155    0.1779 H   0  0  0  0  0  0  0  0  0  0  0  0
   -7.7125    0.9341    1.6716 H   0  0  0  0  0  0  0  0  0  0  0  0
    1.6026    3.0096   -2.9598 H   0  0  0  0  0  0  0  0  0  0  0  0
   -5.8988   -2.1583   -0.2314 H   0  0  0  0  0  0  0  0  0  0  0  0
    4.7051    0.2683    2.3222 H   0  0  0  0  0  0  0  0  0  0  0  0
    6.8603    1.0607    1.6890 H   0  0  0  0  0  0  0  0  0  0  0  0
    7.6150    1.2825   -0.6426 H   0  0  0  0  0  0  0  0  0  0  0  0
    5.4769   -1.9039   -0.5419 H   0  0  0  0  0  0  0  0  0  0  0  0
    8.1492   -0.8268    0.5370 H   0  0  0  0  0  0  0  0  0  0  0  0
    4.8716    2.2314    0.0333 H   0  0  0  0  0  0  0  0  0  0  0  0
    7.2343   -3.6496   -0.3645 H   0  0  0  0  0  0  0  0  0  0  0  0
    5.9852   -3.8516    0.8817 H   0  0  0  0  0  0  0  0  0  0  0  0
    7.5422   -3.1658    1.3203 H   0  0  0  0  0  0  0  0  0  0  0  0
    6.3575    0.2946   -2.2714 H   0  0  0  0  0  0  0  0  0  0  0  0
    8.6176   -0.6726   -1.6956 H   0  0  0  0  0  0  0  0  0  0  0  0
  1 10  1  0  0  0  0
  1 67  1  0  0  0  0
  2 26  1  0  0  0  0
  2 70  1  0  0  0  0
  3 28  1  0  0  0  0
  3 32  1  0  0  0  0
  4 30  1  0  0  0  0
  4 33  1  0  0  0  0
  5 32  1  0  0  0  0
  5 36  1  0  0  0  0
  6 33  2  0  0  0  0
  7 34  1  0  0  0  0
  7 77  1  0  0  0  0
  8 35  1  0  0  0  0
  8 81  1  0  0  0  0
  9 37  1  0  0  0  0
  9 82  1  0  0  0  0
 10 11  1  0  0  0  0
 10 13  1  0  0  0  0
 10 20  1  0  0  0  0
 11 12  1  0  0  0  0
 11 19  1  0  0  0  0
 11 39  1  0  0  0  0
 12 14  1  0  0  0  0
 12 16  1  0  0  0  0
 12 40  1  0  0  0  0
 13 17  1  0  0  0  0
 13 18  1  0  0  0  0
 13 25  1  0  0  0  0
 14 15  1  0  0  0  0
 14 23  1  0  0  0  0
 14 26  1  0  0  0  0
 15 21  1  0  0  0  0
 15 24  1  0  0  0  0
 15 41  1  0  0  0  0
 16 17  1  0  0  0  0
 16 42  1  0  0  0  0
 16 43  1  0  0  0  0
 17 44  1  0  0  0  0
 17 45  1  0  0  0  0
 18 22  1  0  0  0  0
 18 29  1  0  0  0  0
 18 46  1  0  0  0  0
 19 21  1  0  0  0  0
 19 47  1  0  0  0  0
 19 48  1  0  0  0  0
 20 22  1  0  0  0  0
 20 49  1  0  0  0  0
 20 50  1  0  0  0  0
 21 51  1  0  0  0  0
 21 52  1  0  0  0  0
 22 53  1  0  0  0  0
 22 54  1  0  0  0  0
 23 27  1  0  0  0  0
 23 55  1  0  0  0  0
 23 56  1  0  0  0  0
 24 28  1  0  0  0  0
 24 57  1  0  0  0  0
 24 58  1  0  0  0  0
 25 59  1  0  0  0  0
 25 60  1  0  0  0  0
 25 61  1  0  0  0  0
 26 62  1  0  0  0  0
 26 63  1  0  0  0  0
 27 28  1  0  0  0  0
 27 64  1  0  0  0  0
 27 65  1  0  0  0  0
 28 66  1  0  0  0  0
 29 30  1  0  0  0  0
 29 31  2  0  0  0  0
 30 68  1  0  0  0  0
 30 69  1  0  0  0  0
 31 33  1  0  0  0  0
 31 71  1  0  0  0  0
 32 34  1  0  0  0  0
 32 72  1  0  0  0  0
 34 35  1  0  0  0  0
 34 73  1  0  0  0  0
 35 37  1  0  0  0  0
 35 74  1  0  0  0  0
 36 37  1  0  0  0  0
 36 38  1  0  0  0  0
 36 75  1  0  0  0  0
 37 76  1  0  0  0  0
 38 78  1  0  0  0  0
 38 79  1  0  0  0  0
 38 80  1  0  0  0  0
M  END
> <PUBCHEM_COMPOUND_CID>
120728

> <PUBCHEM_CONFORMER_RMSD>
1

> <PUBCHEM_CONFORMER_DIVERSEORDER>
5
26
10
9
25
18
15
34
23
33
39
36
24
35
11
31
2
28
22
20
21
17
19
1
6
4
30
16
3
29
14
7
38
13
27
37
32
8
12

> <PUBCHEM_MMFF94_PARTIAL_CHARGES>
28
1 -0.68
10 0.28
18 0.14
2 -0.68
26 0.28
28 0.28
29 -0.28
3 -0.56
30 0.42
31 -0.14
32 0.56
33 0.71
34 0.28
35 0.28
36 0.28
37 0.28
4 -0.43
5 -0.56
6 -0.57
67 0.4
7 -0.68
70 0.4
71 0.15
77 0.4
8 -0.68
81 0.4
82 0.4
9 -0.68

> <PUBCHEM_EFFECTIVE_ROTOR_COUNT>
7.8

> <PUBCHEM_PHARMACOPHORE_FEATURES>
19
1 1 acceptor
1 1 donor
1 2 acceptor
1 2 donor
1 3 acceptor
1 5 acceptor
1 6 acceptor
1 7 acceptor
1 7 donor
1 8 acceptor
1 8 donor
1 9 acceptor
1 9 donor
5 10 13 18 20 22 rings
5 4 29 30 31 33 rings
6 10 11 12 13 16 17 rings
6 11 12 14 15 19 21 rings
6 14 15 23 24 27 28 rings
6 5 32 34 35 36 37 rings

> <PUBCHEM_HEAVY_ATOM_COUNT>
38

> <PUBCHEM_ATOM_DEF_STEREO_COUNT>
12

> <PUBCHEM_ATOM_UDEF_STEREO_COUNT>
1

> <PUBCHEM_BOND_DEF_STEREO_COUNT>
0

> <PUBCHEM_BOND_UDEF_STEREO_COUNT>
0

> <PUBCHEM_ISOTOPIC_ATOM_COUNT>
0

> <PUBCHEM_COMPONENT_COUNT>
1

> <PUBCHEM_CACTVS_TAUTO_COUNT>
1

> <PUBCHEM_CONFORMER_ID>
0001D79800000005

> <PUBCHEM_MMFF94_ENERGY>
129.0682

> <PUBCHEM_FEATURE_SELFOVERLAP>
96.725

> <PUBCHEM_SHAPE_FINGERPRINT>
10 15 17704069616069874275
10076449 9 15502377821082454063
10299344 5 18413389826141113386
11135609 187 12107778597913700177
11315181 36 16226053288824495313
11621639 179 12902086705999974583
117089 54 18052827940920018466
12107698 1 18407758145043394025
12166972 35 18408320012565063689
12422481 6 18342174432677958916
12516196 113 17822007605784792020
13383668 1 18272923917728111015
13782708 43 18340768127315348634
13811026 1 18187080637466452345
14068700 675 18413389839089871049
14251764 18 18341894104061961275
14856354 85 17967260809622358127
14955137 171 18408890663479099812
15131766 46 17698993304599190032
15183329 4 12396302534583987434
15198563 99 17023461932909910668
15301273 46 18410573980867046350
15361156 5 16877949394857817459
15392192 104 16487254417669437164
15461852 350 18272652364125288279
1577012 14 14045445791711511976
15840311 113 18341613767347166324
15849732 13 18409448098256195669
16728433 281 14780644034846085655
20156587 128 16153985726294444274
20157964 124 9367348137638191656
21304304 249 18343020008358983215
21583282 1 17678753442961988020
23559900 14 17749957786138881921
23569917 315 17703514384811930159
23576562 1 16661215887626096999
249057 3 16950284040150878691
2838139 119 14261346934065074058
3009799 131 13840268095588981896
3178227 256 12751238133751763523
34797466 226 17022905657920975246
3633792 109 17603299341789362729
4098825 35 8430323437288992499
4197921 191 18130792265671053144
4325135 7 16805324401285364218
4516262 110 18047471403252110740
4625314 4 18060416937361070105
59755656 520 15410888570420442893
6081469 158 17967809423016864227
6523845 18 14764340514445401435

> <PUBCHEM_SHAPE_MULTIPOLES>
729.2
23.54
2.32
1.69
1.34
0.07
-0.32
10.88
0.8
-1.8
-0.17
-0.4
-0.16
-0.8

> <PUBCHEM_SHAPE_SELFOVERLAP>
1569.821

> <PUBCHEM_SHAPE_VOLUME>
397.4

> <PUBCHEM_COORDINATE_TYPE>
2
5
10

$$$$
