212348
  -OEChem-11212001493D

 61 65  0     1  0  0  0  0  0999 V2000
   -1.9527    1.5785    0.5211 O   0  0  0  0  0  0  0  0  0  0  0  0
    5.9196   -1.8106   -0.9545 O   0  0  0  0  0  0  0  0  0  0  0  0
    6.8878    0.6560    0.1774 O   0  0  0  0  0  0  0  0  0  0  0  0
    3.3977   -1.3330    2.1389 O   0  0  0  0  0  0  0  0  0  0  0  0
   -6.3589   -0.8646    0.7058 O   0  0  0  0  0  0  0  0  0  0  0  0
   -6.9574    1.3492    0.8991 O   0  0  0  0  0  0  0  0  0  0  0  0
   -1.1948    0.6462   -0.2646 C   0  0  1  0  0  0  0  0  0  0  0  0
    0.2807    0.7820    0.1993 C   0  0  1  0  0  0  0  0  0  0  0  0
   -1.7746   -0.7868   -0.1078 C   0  0  1  0  0  0  0  0  0  0  0  0
    1.2230   -0.3093   -0.3786 C   0  0  1  0  0  0  0  0  0  0  0  0
    2.6910   -0.1519    0.1481 C   0  0  2  0  0  0  0  0  0  0  0  0
   -3.0511   -0.7730   -1.0148 C   0  0  2  0  0  0  0  0  0  0  0  0
   -0.7861   -1.8338   -0.6928 C   0  0  0  0  0  0  0  0  0  0  0  0
    0.6339   -1.7125   -0.1474 C   0  0  0  0  0  0  0  0  0  0  0  0
    3.1897    1.2888   -0.1521 C   0  0  1  0  0  0  0  0  0  0  0  0
   -1.4351    0.9578   -1.7504 C   0  0  0  0  0  0  0  0  0  0  0  0
    0.8354    2.1924   -0.0892 C   0  0  0  0  0  0  0  0  0  0  0  0
   -2.7657    0.2830   -2.1031 C   0  0  0  0  0  0  0  0  0  0  0  0
    2.2646    2.3718    0.4121 C   0  0  0  0  0  0  0  0  0  0  0  0
    3.6557   -1.1541   -0.5322 C   0  0  0  0  0  0  0  0  0  0  0  0
   -2.0787   -1.1568    1.3576 C   0  0  0  0  0  0  0  0  0  0  0  0
    4.6402    1.5074    0.2942 C   0  0  0  0  0  0  0  0  0  0  0  0
    5.1255   -0.9370   -0.1508 C   0  0  2  0  0  0  0  0  0  0  0  0
    5.5797    0.5043   -0.3720 C   0  0  2  0  0  0  0  0  0  0  0  0
   -4.3637   -0.4805   -0.3490 C   0  0  0  0  0  0  0  0  0  0  0  0
    2.7148   -0.4469    1.6361 C   0  0  0  0  0  0  0  0  0  0  0  0
   -5.2339   -1.5605    0.1589 C   0  0  0  0  0  0  0  0  0  0  0  0
   -4.9046    0.7153   -0.1317 C   0  0  0  0  0  0  0  0  0  0  0  0
   -6.1820    0.4789    0.5426 C   0  0  0  0  0  0  0  0  0  0  0  0
    0.2681    0.6781    1.2918 H   0  0  0  0  0  0  0  0  0  0  0  0
    1.2684   -0.1641   -1.4676 H   0  0  0  0  0  0  0  0  0  0  0  0
   -3.1676   -1.7452   -1.5140 H   0  0  0  0  0  0  0  0  0  0  0  0
   -0.7380   -1.7501   -1.7864 H   0  0  0  0  0  0  0  0  0  0  0  0
   -1.1587   -2.8471   -0.4931 H   0  0  0  0  0  0  0  0  0  0  0  0
    3.1790    1.4149   -1.2462 H   0  0  0  0  0  0  0  0  0  0  0  0
    0.6422   -1.9668    0.9178 H   0  0  0  0  0  0  0  0  0  0  0  0
    1.2466   -2.4676   -0.6514 H   0  0  0  0  0  0  0  0  0  0  0  0
   -0.6461    0.5540   -2.3926 H   0  0  0  0  0  0  0  0  0  0  0  0
   -1.5030    2.0347   -1.9399 H   0  0  0  0  0  0  0  0  0  0  0  0
    0.2031    2.9550    0.3799 H   0  0  0  0  0  0  0  0  0  0  0  0
    0.8181    2.3886   -1.1682 H   0  0  0  0  0  0  0  0  0  0  0  0
   -3.5488    1.0313   -2.2556 H   0  0  0  0  0  0  0  0  0  0  0  0
   -2.6571   -0.2156   -3.0754 H   0  0  0  0  0  0  0  0  0  0  0  0
    2.6245    3.3624    0.1082 H   0  0  0  0  0  0  0  0  0  0  0  0
    2.2781    2.3619    1.5081 H   0  0  0  0  0  0  0  0  0  0  0  0
    3.5569   -1.0759   -1.6240 H   0  0  0  0  0  0  0  0  0  0  0  0
    3.3962   -2.1939   -0.2966 H   0  0  0  0  0  0  0  0  0  0  0  0
   -2.8194   -0.4969    1.8193 H   0  0  0  0  0  0  0  0  0  0  0  0
   -2.4557   -2.1826    1.4314 H   0  0  0  0  0  0  0  0  0  0  0  0
   -1.1813   -1.0986    1.9817 H   0  0  0  0  0  0  0  0  0  0  0  0
    4.9686    2.5233    0.0400 H   0  0  0  0  0  0  0  0  0  0  0  0
    4.7257    1.4410    1.3865 H   0  0  0  0  0  0  0  0  0  0  0  0
    5.3255   -1.2368    0.8813 H   0  0  0  0  0  0  0  0  0  0  0  0
   -1.7542    1.4283    1.4603 H   0  0  0  0  0  0  0  0  0  0  0  0
    5.6612    0.7142   -1.4448 H   0  0  0  0  0  0  0  0  0  0  0  0
    2.0963    0.1919    2.2851 H   0  0  0  0  0  0  0  0  0  0  0  0
   -5.5819   -2.2211   -0.6407 H   0  0  0  0  0  0  0  0  0  0  0  0
   -4.7689   -2.1525    0.9504 H   0  0  0  0  0  0  0  0  0  0  0  0
   -4.5275    1.6950   -0.3675 H   0  0  0  0  0  0  0  0  0  0  0  0
    6.8514   -1.6482   -0.7280 H   0  0  0  0  0  0  0  0  0  0  0  0
    6.8348    0.4876    1.1336 H   0  0  0  0  0  0  0  0  0  0  0  0
  1  7  1  0  0  0  0
  1 54  1  0  0  0  0
  2 23  1  0  0  0  0
  2 60  1  0  0  0  0
  3 24  1  0  0  0  0
  3 61  1  0  0  0  0
  4 26  2  0  0  0  0
  5 27  1  0  0  0  0
  5 29  1  0  0  0  0
  6 29  2  0  0  0  0
  7  8  1  0  0  0  0
  7  9  1  0  0  0  0
  7 16  1  0  0  0  0
  8 10  1  0  0  0  0
  8 17  1  0  0  0  0
  8 30  1  0  0  0  0
  9 12  1  0  0  0  0
  9 13  1  0  0  0  0
  9 21  1  0  0  0  0
 10 11  1  0  0  0  0
 10 14  1  0  0  0  0
 10 31  1  0  0  0  0
 11 15  1  0  0  0  0
 11 20  1  0  0  0  0
 11 26  1  0  0  0  0
 12 18  1  0  0  0  0
 12 25  1  0  0  0  0
 12 32  1  0  0  0  0
 13 14  1  0  0  0  0
 13 33  1  0  0  0  0
 13 34  1  0  0  0  0
 14 36  1  0  0  0  0
 14 37  1  0  0  0  0
 15 19  1  0  0  0  0
 15 22  1  0  0  0  0
 15 35  1  0  0  0  0
 16 18  1  0  0  0  0
 16 38  1  0  0  0  0
 16 39  1  0  0  0  0
 17 19  1  0  0  0  0
 17 40  1  0  0  0  0
 17 41  1  0  0  0  0
 18 42  1  0  0  0  0
 18 43  1  0  0  0  0
 19 44  1  0  0  0  0
 19 45  1  0  0  0  0
 20 23  1  0  0  0  0
 20 46  1  0  0  0  0
 20 47  1  0  0  0  0
 21 48  1  0  0  0  0
 21 49  1  0  0  0  0
 21 50  1  0  0  0  0
 22 24  1  0  0  0  0
 22 51  1  0  0  0  0
 22 52  1  0  0  0  0
 23 24  1  0  0  0  0
 23 53  1  0  0  0  0
 24 55  1  0  0  0  0
 25 27  1  0  0  0  0
 25 28  2  0  0  0  0
 26 56  1  0  0  0  0
 27 57  1  0  0  0  0
 27 58  1  0  0  0  0
 28 29  1  0  0  0  0
 28 59  1  0  0  0  0
M  END
> <PUBCHEM_COMPOUND_CID>
212348

> <PUBCHEM_CONFORMER_RMSD>
0.8

> <PUBCHEM_CONFORMER_DIVERSEORDER>
5
1
3
2
6
4

> <PUBCHEM_MMFF94_PARTIAL_CHARGES>
21
1 -0.68
11 0.06
12 0.14
2 -0.68
23 0.28
24 0.28
25 -0.28
26 0.45
27 0.42
28 -0.14
29 0.71
3 -0.68
4 -0.57
5 -0.43
54 0.4
56 0.06
59 0.15
6 -0.57
60 0.4
61 0.4
7 0.28

> <PUBCHEM_EFFECTIVE_ROTOR_COUNT>
4.6

> <PUBCHEM_PHARMACOPHORE_FEATURES>
13
1 1 acceptor
1 1 donor
1 2 acceptor
1 2 donor
1 3 acceptor
1 3 donor
1 4 acceptor
1 6 acceptor
5 5 25 27 28 29 rings
5 7 9 12 16 18 rings
6 11 15 20 22 23 24 rings
6 7 8 9 10 13 14 rings
6 8 10 11 15 17 19 rings

> <PUBCHEM_HEAVY_ATOM_COUNT>
29

> <PUBCHEM_ATOM_DEF_STEREO_COUNT>
8

> <PUBCHEM_ATOM_UDEF_STEREO_COUNT>
1

> <PUBCHEM_BOND_DEF_STEREO_COUNT>
0

> <PUBCHEM_BOND_UDEF_STEREO_COUNT>
0

> <PUBCHEM_ISOTOPIC_ATOM_COUNT>
0

> <PUBCHEM_COMPONENT_COUNT>
1

> <PUBCHEM_CACTVS_TAUTO_COUNT>
1

> <PUBCHEM_CONFORMER_ID>
00033D7C00000005

> <PUBCHEM_MMFF94_ENERGY>
95.244

> <PUBCHEM_FEATURE_SELFOVERLAP>
66.164

> <PUBCHEM_SHAPE_FINGERPRINT>
10366900 7 17385723603548463129
10674148 151 18201444662579334392
10906281 52 18339942470658772007
11045977 3 18260831531657768163
11089746 13 15123503701435266331
12166972 35 17846217795160846897
12236239 1 17632858641954078087
12403259 415 18113609080292181261
12516196 113 18343301483240572904
12553582 1 18339626893852870556
12788726 201 18343018852786226673
13140716 1 18266450091314426251
13402501 40 18334577957822352206
13533116 47 12823032880291950532
13583140 156 17387105681444083471
13782708 43 17967527986658384323
14251764 18 18410014360367782755
14341114 176 18411141346453192277
14617045 38 17748826319342292778
14790565 3 18413112774954726893
14849402 71 18268997651277357729
14955137 171 18413112770506519061
15131766 46 14115793675971381242
15142383 8 17274822428686674328
15183329 4 18343577447589529261
15196674 1 18341049704759149959
15461852 350 16559026104773090181
15537594 2 17676482856734632219
15840311 113 18411423921511684861
15849732 13 17846501439106552245
1601671 61 18342175570343119005
17349148 13 17988639722413285903
1813 80 16660640795805112773
18608769 82 17531532078180784962
19319366 153 17312813888611621170
20832881 197 18131351907813828168
21033648 29 18115006589435752789
21130935 74 18272932747463426506
21267235 1 18412549791189745374
21279426 13 18338798901246041413
21521721 280 17968381255754295096
21792934 111 18271515404398096896
21859007 373 14979676520596582299
23522609 53 18115896073152922725
23559900 14 18272366511780318040
23622692 88 14979956969213089344
24771293 8 17915441995817867472
2838139 119 17417810622330500593
3004659 81 18334860511484375966
335352 9 18342459252722010637
34797466 226 16226058777545053062
350125 39 18412546509017482269
3545911 37 17603581937478276554
4073 2 18115312318055574922
4093350 32 17060063696500656292
4325135 7 8070028857218439961
4340502 62 16805602573289988274
46194498 28 17821728373218945148
5104073 3 18338229466403621859
542803 24 18411976974884003279
59755656 215 18336552633683218102
7226269 152 15769780156642479659

> <PUBCHEM_SHAPE_MULTIPOLES>
561.59
15.1
2.02
1.33
4.19
0.31
0.03
-0.2
-2.02
-0.84
-0.1
0.31
-0.19
0.12

> <PUBCHEM_SHAPE_SELFOVERLAP>
1222.318

> <PUBCHEM_SHAPE_VOLUME>
303

> <PUBCHEM_COORDINATE_TYPE>
2
5
10

$$$$
