15427611
  -OEChem-11212001453D

 82 86  0     1  0  0  0  0  0999 V2000
    6.2867    0.3763    0.3100 O   0  0  0  0  0  0  0  0  0  0  0  0
   -4.8878   -1.1448   -1.1511 O   0  0  0  0  0  0  0  0  0  0  0  0
    6.3343    2.5608    1.0600 O   0  0  0  0  0  0  0  0  0  0  0  0
   -0.2803   -1.1482   -0.2903 C   0  0  2  0  0  0  0  0  0  0  0  0
    2.0623    0.1534   -0.6890 C   0  0  2  0  0  0  0  0  0  0  0  0
    0.5257    0.2042   -0.2587 C   0  0  1  0  0  0  0  0  0  0  0  0
   -1.6913   -0.9346    0.5091 C   0  0  1  0  0  0  0  0  0  0  0  0
    2.7380   -0.9983    0.1430 C   0  0  1  0  0  0  0  0  0  0  0  0
    0.5689   -2.2741    0.3639 C   0  0  0  0  0  0  0  0  0  0  0  0
    2.0236   -2.3414   -0.1071 C   0  0  0  0  0  0  0  0  0  0  0  0
    4.3089   -1.0598    0.0965 C   0  0  0  0  0  0  0  0  0  0  0  0
   -2.4317    0.3403    0.0289 C   0  0  0  0  0  0  0  0  0  0  0  0
    2.7355    1.4997   -0.2800 C   0  0  0  0  0  0  0  0  0  0  0  0
   -0.2872    1.3340   -0.9181 C   0  0  0  0  0  0  0  0  0  0  0  0
   -2.6000   -2.1881    0.3307 C   0  0  0  0  0  0  0  0  0  0  0  0
   -3.9293    0.4776    0.3980 C   0  0  2  0  0  0  0  0  0  0  0  0
   -0.5763   -1.5840   -1.7564 C   0  0  0  0  0  0  0  0  0  0  0  0
    4.8681    0.3456    0.4662 C   0  0  2  0  0  0  0  0  0  0  0  0
   -4.7338   -0.8468    0.2394 C   0  0  2  0  0  0  0  0  0  0  0  0
    2.2497   -0.0096   -2.2183 C   0  0  0  0  0  0  0  0  0  0  0  0
    4.2614    1.4855   -0.3457 C   0  0  0  0  0  0  0  0  0  0  0  0
   -1.7480    1.3281   -0.5826 C   0  0  0  0  0  0  0  0  0  0  0  0
   -4.0083   -2.0273    0.8972 C   0  0  0  0  0  0  0  0  0  0  0  0
   -1.4603   -0.7510    2.0425 C   0  0  0  0  0  0  0  0  0  0  0  0
   -4.7171    1.6971   -0.2039 C   0  0  2  0  0  0  0  0  0  0  0  0
    4.8264   -2.0528    1.1753 C   0  0  0  0  0  0  0  0  0  0  0  0
    4.8778   -1.5612   -1.2462 C   0  0  0  0  0  0  0  0  0  0  0  0
   -6.1386   -0.7058    0.8681 C   0  0  0  0  0  0  0  0  0  0  0  0
   -6.9226    0.4911    0.3297 C   0  0  0  0  0  0  0  0  0  0  0  0
   -6.1059    1.7537    0.4150 C   0  0  0  0  0  0  0  0  0  0  0  0
   -4.8430    1.7350   -1.7363 C   0  0  0  0  0  0  0  0  0  0  0  0
   -6.5671    2.8531    1.0314 C   0  0  0  0  0  0  0  0  0  0  0  0
    6.8912    1.5531    0.6459 C   0  0  0  0  0  0  0  0  0  0  0  0
    8.3703    1.4390    0.4329 C   0  0  0  0  0  0  0  0  0  0  0  0
    0.5795    0.4848    0.8014 H   0  0  0  0  0  0  0  0  0  0  0  0
    2.5201   -0.7532    1.1966 H   0  0  0  0  0  0  0  0  0  0  0  0
    0.1020   -3.2522    0.1967 H   0  0  0  0  0  0  0  0  0  0  0  0
    0.6084   -2.1414    1.4492 H   0  0  0  0  0  0  0  0  0  0  0  0
    2.5025   -3.1454    0.4600 H   0  0  0  0  0  0  0  0  0  0  0  0
    2.0721   -2.6460   -1.1557 H   0  0  0  0  0  0  0  0  0  0  0  0
    2.4445    1.7597    0.7466 H   0  0  0  0  0  0  0  0  0  0  0  0
    2.3707    2.3130   -0.9197 H   0  0  0  0  0  0  0  0  0  0  0  0
   -0.2141    1.3079   -2.0082 H   0  0  0  0  0  0  0  0  0  0  0  0
    0.1173    2.3019   -0.6002 H   0  0  0  0  0  0  0  0  0  0  0  0
   -2.1358   -3.0607    0.8058 H   0  0  0  0  0  0  0  0  0  0  0  0
   -2.7172   -2.4422   -0.7266 H   0  0  0  0  0  0  0  0  0  0  0  0
   -3.9070    0.6791    1.4815 H   0  0  0  0  0  0  0  0  0  0  0  0
   -1.3048   -0.9333   -2.2489 H   0  0  0  0  0  0  0  0  0  0  0  0
    0.3108   -1.6033   -2.3838 H   0  0  0  0  0  0  0  0  0  0  0  0
   -0.9655   -2.6067   -1.8014 H   0  0  0  0  0  0  0  0  0  0  0  0
    4.6470    0.5283    1.5282 H   0  0  0  0  0  0  0  0  0  0  0  0
    3.1705    0.4518   -2.5818 H   0  0  0  0  0  0  0  0  0  0  0  0
    2.2948   -1.0523   -2.5362 H   0  0  0  0  0  0  0  0  0  0  0  0
    1.4586    0.4733   -2.7944 H   0  0  0  0  0  0  0  0  0  0  0  0
    4.6138    1.4328   -1.3818 H   0  0  0  0  0  0  0  0  0  0  0  0
    4.5521    2.4832   -0.0191 H   0  0  0  0  0  0  0  0  0  0  0  0
   -2.2479    2.2471   -0.8691 H   0  0  0  0  0  0  0  0  0  0  0  0
   -4.5573   -2.9576    0.7001 H   0  0  0  0  0  0  0  0  0  0  0  0
   -3.9754   -1.9106    1.9860 H   0  0  0  0  0  0  0  0  0  0  0  0
   -0.7354    0.0333    2.2735 H   0  0  0  0  0  0  0  0  0  0  0  0
   -2.3758   -0.4707    2.5736 H   0  0  0  0  0  0  0  0  0  0  0  0
   -1.1184   -1.6771    2.5153 H   0  0  0  0  0  0  0  0  0  0  0  0
   -4.1786    2.6075    0.0940 H   0  0  0  0  0  0  0  0  0  0  0  0
    4.3915   -1.8350    2.1572 H   0  0  0  0  0  0  0  0  0  0  0  0
    4.5902   -3.0915    0.9236 H   0  0  0  0  0  0  0  0  0  0  0  0
    5.9161   -1.9976    1.2809 H   0  0  0  0  0  0  0  0  0  0  0  0
    4.7764   -0.8323   -2.0503 H   0  0  0  0  0  0  0  0  0  0  0  0
    5.9505   -1.7752   -1.1644 H   0  0  0  0  0  0  0  0  0  0  0  0
    4.3957   -2.4904   -1.5660 H   0  0  0  0  0  0  0  0  0  0  0  0
   -6.0466   -0.6082    1.9580 H   0  0  0  0  0  0  0  0  0  0  0  0
   -6.7279   -1.6116    0.6764 H   0  0  0  0  0  0  0  0  0  0  0  0
   -7.8577    0.5844    0.8952 H   0  0  0  0  0  0  0  0  0  0  0  0
   -7.2127    0.3101   -0.7116 H   0  0  0  0  0  0  0  0  0  0  0  0
   -5.4127   -1.9595   -1.2296 H   0  0  0  0  0  0  0  0  0  0  0  0
   -5.1948    2.7238   -2.0551 H   0  0  0  0  0  0  0  0  0  0  0  0
   -3.8925    1.5530   -2.2426 H   0  0  0  0  0  0  0  0  0  0  0  0
   -5.5619    1.0097   -2.1274 H   0  0  0  0  0  0  0  0  0  0  0  0
   -5.9686    3.7553    1.0996 H   0  0  0  0  0  0  0  0  0  0  0  0
   -7.5545    2.8765    1.4799 H   0  0  0  0  0  0  0  0  0  0  0  0
    8.5778    1.2310   -0.6197 H   0  0  0  0  0  0  0  0  0  0  0  0
    8.7763    0.6488    1.0693 H   0  0  0  0  0  0  0  0  0  0  0  0
    8.8495    2.3845    0.7023 H   0  0  0  0  0  0  0  0  0  0  0  0
  1 18  1  0  0  0  0
  1 33  1  0  0  0  0
  2 19  1  0  0  0  0
  2 74  1  0  0  0  0
  3 33  2  0  0  0  0
  4  6  1  0  0  0  0
  4  7  1  0  0  0  0
  4  9  1  0  0  0  0
  4 17  1  0  0  0  0
  5  6  1  0  0  0  0
  5  8  1  0  0  0  0
  5 13  1  0  0  0  0
  5 20  1  0  0  0  0
  6 14  1  0  0  0  0
  6 35  1  0  0  0  0
  7 12  1  0  0  0  0
  7 15  1  0  0  0  0
  7 24  1  0  0  0  0
  8 10  1  0  0  0  0
  8 11  1  0  0  0  0
  8 36  1  0  0  0  0
  9 10  1  0  0  0  0
  9 37  1  0  0  0  0
  9 38  1  0  0  0  0
 10 39  1  0  0  0  0
 10 40  1  0  0  0  0
 11 18  1  0  0  0  0
 11 26  1  0  0  0  0
 11 27  1  0  0  0  0
 12 16  1  0  0  0  0
 12 22  2  0  0  0  0
 13 21  1  0  0  0  0
 13 41  1  0  0  0  0
 13 42  1  0  0  0  0
 14 22  1  0  0  0  0
 14 43  1  0  0  0  0
 14 44  1  0  0  0  0
 15 23  1  0  0  0  0
 15 45  1  0  0  0  0
 15 46  1  0  0  0  0
 16 19  1  0  0  0  0
 16 25  1  0  0  0  0
 16 47  1  0  0  0  0
 17 48  1  0  0  0  0
 17 49  1  0  0  0  0
 17 50  1  0  0  0  0
 18 21  1  0  0  0  0
 18 51  1  0  0  0  0
 19 23  1  0  0  0  0
 19 28  1  0  0  0  0
 20 52  1  0  0  0  0
 20 53  1  0  0  0  0
 20 54  1  0  0  0  0
 21 55  1  0  0  0  0
 21 56  1  0  0  0  0
 22 57  1  0  0  0  0
 23 58  1  0  0  0  0
 23 59  1  0  0  0  0
 24 60  1  0  0  0  0
 24 61  1  0  0  0  0
 24 62  1  0  0  0  0
 25 30  1  0  0  0  0
 25 31  1  0  0  0  0
 25 63  1  0  0  0  0
 26 64  1  0  0  0  0
 26 65  1  0  0  0  0
 26 66  1  0  0  0  0
 27 67  1  0  0  0  0
 27 68  1  0  0  0  0
 27 69  1  0  0  0  0
 28 29  1  0  0  0  0
 28 70  1  0  0  0  0
 28 71  1  0  0  0  0
 29 30  1  0  0  0  0
 29 72  1  0  0  0  0
 29 73  1  0  0  0  0
 30 32  2  0  0  0  0
 31 75  1  0  0  0  0
 31 76  1  0  0  0  0
 31 77  1  0  0  0  0
 32 78  1  0  0  0  0
 32 79  1  0  0  0  0
 33 34  1  0  0  0  0
 34 80  1  0  0  0  0
 34 81  1  0  0  0  0
 34 82  1  0  0  0  0
M  END
> <PUBCHEM_COMPOUND_CID>
15427611

> <PUBCHEM_CONFORMER_RMSD>
0.8

> <PUBCHEM_CONFORMER_DIVERSEORDER>
2
1

> <PUBCHEM_MMFF94_PARTIAL_CHARGES>
20
1 -0.43
12 -0.28
14 0.14
16 0.14
18 0.28
19 0.28
2 -0.68
22 -0.29
25 0.14
29 0.14
3 -0.57
30 -0.28
32 -0.3
33 0.66
34 0.06
57 0.15
7 0.14
74 0.4
78 0.15
79 0.15

> <PUBCHEM_EFFECTIVE_ROTOR_COUNT>
4.4

> <PUBCHEM_PHARMACOPHORE_FEATURES>
9
1 2 acceptor
1 2 donor
1 3 acceptor
3 11 26 27 hydrophobe
6 16 19 25 28 29 30 rings
6 4 5 6 8 9 10 rings
6 4 6 7 12 14 22 rings
6 5 8 11 13 18 21 rings
6 7 12 15 16 19 23 rings

> <PUBCHEM_HEAVY_ATOM_COUNT>
34

> <PUBCHEM_ATOM_DEF_STEREO_COUNT>
9

> <PUBCHEM_ATOM_UDEF_STEREO_COUNT>
0

> <PUBCHEM_BOND_DEF_STEREO_COUNT>
0

> <PUBCHEM_BOND_UDEF_STEREO_COUNT>
0

> <PUBCHEM_ISOTOPIC_ATOM_COUNT>
0

> <PUBCHEM_COMPONENT_COUNT>
1

> <PUBCHEM_CACTVS_TAUTO_COUNT>
1

> <PUBCHEM_CONFORMER_ID>
00EB681B00000002

> <PUBCHEM_MMFF94_ENERGY>
143.5182

> <PUBCHEM_FEATURE_SELFOVERLAP>
45.725

> <PUBCHEM_SHAPE_FINGERPRINT>
10 15 18187363238130919608
10835480 77 18413386518763289113
10906281 52 17896056428144172430
11578080 2 17773299326378294640
11991303 11 16128366107958795532
12236239 1 18202281402990482831
12422481 6 18040433248558497687
12633257 1 16226048933295263962
13533116 47 17677331593991479202
13782708 43 11241976979451392193
13811026 1 18333730225962379723
13911987 19 16988844986241028379
14028597 1 16732974302204606944
14251764 18 18187646924588409064
14394314 77 18410295779168027969
14849402 71 18409730707247548032
14856354 85 14418140621350146907
15021287 119 16081369678474003885
15064986 96 18201155452604589262
15183329 4 17676493834697161103
15238133 3 18114472227227388500
1577012 14 18202278100054779958
15840311 113 18339084779139418645
17349148 13 17458355121598095463
17980427 23 18113902696946044855
1813 80 16153430536508111974
20511986 3 18334284362337201539
21033648 144 18409161083130454093
21033648 29 18260277338478187626
21130935 74 18334297530907878899
21279426 13 18188769435861273871
21298829 104 18411140238183110848
21859007 373 17314779699337286165
23559900 14 18410012134810189752
23569943 247 16879901950866866307
24771293 8 18408604768627555580
25223398 141 15266486500062008540
2838139 119 18130503140698412684
3383291 50 17531537585025457787
34797466 226 17917718984638466087
350125 39 18334017155241536460
3633792 109 17703236118290988550
3680242 22 18041001674489758843
4073 2 18114187475080114722
4093350 32 17704075067211483220
4144715 1 18261967275287353339
4169191 19 18412261731532713409
4340502 62 18335141968558550422
46194498 28 11527944565600806218
5028188 123 18268718372120042996
504579 68 13039188091330301537
5104073 3 18260832583497488331
6086070 43 17346023580201656801
7226269 152 18411980231086866497

> <PUBCHEM_SHAPE_MULTIPOLES>
682.1
19.16
2.75
1.41
8.87
0.11
-0.36
11.38
5.33
-0.14
0.41
-0.1
-0.07
0.8

> <PUBCHEM_SHAPE_SELFOVERLAP>
1444.173

> <PUBCHEM_SHAPE_VOLUME>
375.9

> <PUBCHEM_COORDINATE_TYPE>
2
5
10

$$$$
