101618772
  -OEChem-11212001503D

 79 85  0     1  0  0  0  0  0999 V2000
    4.0479    0.9130   -1.1563 O   0  0  0  0  0  0  0  0  0  0  0  0
    3.6482    2.9028    0.6132 O   0  0  0  0  0  0  0  0  0  0  0  0
   -4.1405   -0.6686    1.5382 O   0  0  0  0  0  0  0  0  0  0  0  0
   -4.8911    1.0908   -0.5204 O   0  0  0  0  0  0  0  0  0  0  0  0
   -1.1050   -0.7936   -2.3573 O   0  0  0  0  0  0  0  0  0  0  0  0
    8.1287   -1.6089   -0.2364 O   0  0  0  0  0  0  0  0  0  0  0  0
   -5.7247   -1.6932    0.1212 O   0  0  0  0  0  0  0  0  0  0  0  0
   -5.8538    1.7250    1.5458 O   0  0  0  0  0  0  0  0  0  0  0  0
   -8.2316    0.6582    0.8761 O   0  0  0  0  0  0  0  0  0  0  0  0
    8.8180    0.1509   -1.5491 O   0  0  0  0  0  0  0  0  0  0  0  0
    3.1887    0.5774   -0.0563 C   0  0  1  0  0  0  0  0  0  0  0  0
    1.7185    0.5666   -0.5639 C   0  0  1  0  0  0  0  0  0  0  0  0
    3.6394   -0.7779    0.5653 C   0  0  1  0  0  0  0  0  0  0  0  0
    0.7034    0.0250    0.4834 C   0  0  1  0  0  0  0  0  0  0  0  0
   -0.7555   -0.0189   -0.0903 C   0  0  2  0  0  0  0  0  0  0  0  0
   -1.1354    1.3926   -0.6262 C   0  0  1  0  0  0  0  0  0  0  0  0
    4.9602   -0.4054    1.3216 C   0  0  2  0  0  0  0  0  0  0  0  0
    2.5958   -1.2647    1.6072 C   0  0  0  0  0  0  0  0  0  0  0  0
    1.1716   -1.3244    1.0616 C   0  0  0  0  0  0  0  0  0  0  0  0
    3.4959    1.5722    1.0819 C   0  0  1  0  0  0  0  0  0  0  0  0
    1.2756    1.9435   -1.0971 C   0  0  0  0  0  0  0  0  0  0  0  0
   -0.1417    1.9261   -1.6625 C   0  0  0  0  0  0  0  0  0  0  0  0
    4.7989    1.0773    1.7196 C   0  0  0  0  0  0  0  0  0  0  0  0
   -1.7902   -0.4410    0.9874 C   0  0  0  0  0  0  0  0  0  0  0  0
   -2.5819    1.4624   -1.1394 C   0  0  0  0  0  0  0  0  0  0  0  0
    3.8470   -1.8940   -0.4802 C   0  0  0  0  0  0  0  0  0  0  0  0
   -3.2339   -0.3431    0.4785 C   0  0  2  0  0  0  0  0  0  0  0  0
   -3.5488    1.0583   -0.0294 C   0  0  2  0  0  0  0  0  0  0  0  0
   -0.8167   -1.0585   -1.1949 C   0  0  0  0  0  0  0  0  0  0  0  0
    6.2354   -0.5911    0.5514 C   0  0  0  0  0  0  0  0  0  0  0  0
   -5.8408    0.7422    0.5054 C   0  0  2  0  0  0  0  0  0  0  0  0
    7.0135   -1.8442    0.6298 C   0  0  0  0  0  0  0  0  0  0  0  0
   -5.5056   -0.6506    1.0786 C   0  0  2  0  0  0  0  0  0  0  0  0
    6.8161    0.2857   -0.2632 C   0  0  0  0  0  0  0  0  0  0  0  0
   -7.2336    0.7521   -0.1422 C   0  0  1  0  0  0  0  0  0  0  0  0
    8.0288   -0.3573   -0.7716 C   0  0  0  0  0  0  0  0  0  0  0  0
   -7.3968   -0.4278   -1.1001 C   0  0  0  0  0  0  0  0  0  0  0  0
   -7.0581   -1.7394   -0.3854 C   0  0  1  0  0  0  0  0  0  0  0  0
   -7.1460   -2.9192   -1.3442 C   0  0  0  0  0  0  0  0  0  0  0  0
    1.6937   -0.1094   -1.4307 H   0  0  0  0  0  0  0  0  0  0  0  0
    0.6852    0.7354    1.3224 H   0  0  0  0  0  0  0  0  0  0  0  0
   -1.0813    2.0833    0.2304 H   0  0  0  0  0  0  0  0  0  0  0  0
    5.0529   -0.9995    2.2410 H   0  0  0  0  0  0  0  0  0  0  0  0
    2.5967   -0.6170    2.4930 H   0  0  0  0  0  0  0  0  0  0  0  0
    2.8775   -2.2597    1.9761 H   0  0  0  0  0  0  0  0  0  0  0  0
    1.1207   -2.1180    0.3114 H   0  0  0  0  0  0  0  0  0  0  0  0
    0.5144   -1.6305    1.8828 H   0  0  0  0  0  0  0  0  0  0  0  0
    2.7022    1.5789    1.8358 H   0  0  0  0  0  0  0  0  0  0  0  0
    1.9621    2.2903   -1.8780 H   0  0  0  0  0  0  0  0  0  0  0  0
    1.3077    2.6852   -0.2909 H   0  0  0  0  0  0  0  0  0  0  0  0
   -0.4185    2.9516   -1.9380 H   0  0  0  0  0  0  0  0  0  0  0  0
   -0.1616    1.3519   -2.5932 H   0  0  0  0  0  0  0  0  0  0  0  0
    4.6895    1.1402    2.8109 H   0  0  0  0  0  0  0  0  0  0  0  0
    5.6475    1.7288    1.4892 H   0  0  0  0  0  0  0  0  0  0  0  0
   -1.6776    0.1823    1.8846 H   0  0  0  0  0  0  0  0  0  0  0  0
   -1.6229   -1.4728    1.3203 H   0  0  0  0  0  0  0  0  0  0  0  0
   -2.8162    2.4899   -1.4480 H   0  0  0  0  0  0  0  0  0  0  0  0
   -2.7535    0.8577   -2.0352 H   0  0  0  0  0  0  0  0  0  0  0  0
    4.6011   -1.6418   -1.2316 H   0  0  0  0  0  0  0  0  0  0  0  0
    2.9260   -2.1029   -1.0335 H   0  0  0  0  0  0  0  0  0  0  0  0
    4.1512   -2.8296    0.0014 H   0  0  0  0  0  0  0  0  0  0  0  0
   -3.3778   -1.0790   -0.3230 H   0  0  0  0  0  0  0  0  0  0  0  0
   -3.4698    1.7863    0.7891 H   0  0  0  0  0  0  0  0  0  0  0  0
   -0.6281   -2.1045   -0.9035 H   0  0  0  0  0  0  0  0  0  0  0  0
    3.8147    0.3461   -1.9104 H   0  0  0  0  0  0  0  0  0  0  0  0
    3.8908    3.4552    1.3758 H   0  0  0  0  0  0  0  0  0  0  0  0
    7.3862   -2.0354    1.6405 H   0  0  0  0  0  0  0  0  0  0  0  0
    6.4680   -2.7181    0.2676 H   0  0  0  0  0  0  0  0  0  0  0  0
   -6.1206   -0.8582    1.9622 H   0  0  0  0  0  0  0  0  0  0  0  0
    6.5149    1.2813   -0.5373 H   0  0  0  0  0  0  0  0  0  0  0  0
   -7.4002    1.6927   -0.6806 H   0  0  0  0  0  0  0  0  0  0  0  0
   -8.4254   -0.4715   -1.4766 H   0  0  0  0  0  0  0  0  0  0  0  0
   -6.7280   -0.2866   -1.9581 H   0  0  0  0  0  0  0  0  0  0  0  0
   -7.7468   -1.9177    0.4496 H   0  0  0  0  0  0  0  0  0  0  0  0
   -6.4191    2.4635    1.2634 H   0  0  0  0  0  0  0  0  0  0  0  0
   -9.0996    0.6818    0.4385 H   0  0  0  0  0  0  0  0  0  0  0  0
   -6.4320   -2.8104   -2.1682 H   0  0  0  0  0  0  0  0  0  0  0  0
   -8.1525   -3.0191   -1.7616 H   0  0  0  0  0  0  0  0  0  0  0  0
   -6.8884   -3.8501   -0.8274 H   0  0  0  0  0  0  0  0  0  0  0  0
  1 11  1  0  0  0  0
  1 65  1  0  0  0  0
  2 20  1  0  0  0  0
  2 66  1  0  0  0  0
  3 27  1  0  0  0  0
  3 33  1  0  0  0  0
  4 28  1  0  0  0  0
  4 31  1  0  0  0  0
  5 29  2  0  0  0  0
  6 32  1  0  0  0  0
  6 36  1  0  0  0  0
  7 33  1  0  0  0  0
  7 38  1  0  0  0  0
  8 31  1  0  0  0  0
  8 75  1  0  0  0  0
  9 35  1  0  0  0  0
  9 76  1  0  0  0  0
 10 36  2  0  0  0  0
 11 12  1  0  0  0  0
 11 13  1  0  0  0  0
 11 20  1  0  0  0  0
 12 14  1  0  0  0  0
 12 21  1  0  0  0  0
 12 40  1  0  0  0  0
 13 17  1  0  0  0  0
 13 18  1  0  0  0  0
 13 26  1  0  0  0  0
 14 15  1  0  0  0  0
 14 19  1  0  0  0  0
 14 41  1  0  0  0  0
 15 16  1  0  0  0  0
 15 24  1  0  0  0  0
 15 29  1  0  0  0  0
 16 22  1  0  0  0  0
 16 25  1  0  0  0  0
 16 42  1  0  0  0  0
 17 23  1  0  0  0  0
 17 30  1  0  0  0  0
 17 43  1  0  0  0  0
 18 19  1  0  0  0  0
 18 44  1  0  0  0  0
 18 45  1  0  0  0  0
 19 46  1  0  0  0  0
 19 47  1  0  0  0  0
 20 23  1  0  0  0  0
 20 48  1  0  0  0  0
 21 22  1  0  0  0  0
 21 49  1  0  0  0  0
 21 50  1  0  0  0  0
 22 51  1  0  0  0  0
 22 52  1  0  0  0  0
 23 53  1  0  0  0  0
 23 54  1  0  0  0  0
 24 27  1  0  0  0  0
 24 55  1  0  0  0  0
 24 56  1  0  0  0  0
 25 28  1  0  0  0  0
 25 57  1  0  0  0  0
 25 58  1  0  0  0  0
 26 59  1  0  0  0  0
 26 60  1  0  0  0  0
 26 61  1  0  0  0  0
 27 28  1  0  0  0  0
 27 62  1  0  0  0  0
 28 63  1  0  0  0  0
 29 64  1  0  0  0  0
 30 32  1  0  0  0  0
 30 34  2  0  0  0  0
 31 33  1  0  0  0  0
 31 35  1  0  0  0  0
 32 67  1  0  0  0  0
 32 68  1  0  0  0  0
 33 69  1  0  0  0  0
 34 36  1  0  0  0  0
 34 70  1  0  0  0  0
 35 37  1  0  0  0  0
 35 71  1  0  0  0  0
 37 38  1  0  0  0  0
 37 72  1  0  0  0  0
 37 73  1  0  0  0  0
 38 39  1  0  0  0  0
 38 74  1  0  0  0  0
 39 77  1  0  0  0  0
 39 78  1  0  0  0  0
 39 79  1  0  0  0  0
M  END
> <PUBCHEM_COMPOUND_CID>
101618772

> <PUBCHEM_CONFORMER_RMSD>
1

> <PUBCHEM_CONFORMER_DIVERSEORDER>
1
2

> <PUBCHEM_MMFF94_PARTIAL_CHARGES>
31
1 -0.68
10 -0.57
11 0.28
15 0.06
17 0.14
2 -0.68
20 0.28
27 0.28
28 0.28
29 0.45
3 -0.56
30 -0.28
31 0.56
32 0.42
33 0.56
34 -0.14
35 0.28
36 0.71
38 0.28
4 -0.56
5 -0.57
6 -0.43
64 0.06
65 0.4
66 0.4
7 -0.56
70 0.15
75 0.4
76 0.4
8 -0.68
9 -0.68

> <PUBCHEM_EFFECTIVE_ROTOR_COUNT>
5.4

> <PUBCHEM_PHARMACOPHORE_FEATURES>
20
1 1 acceptor
1 1 donor
1 10 acceptor
1 2 acceptor
1 2 donor
1 3 acceptor
1 4 acceptor
1 5 acceptor
1 7 acceptor
1 8 acceptor
1 8 donor
1 9 acceptor
1 9 donor
5 11 13 17 20 23 rings
5 6 30 32 34 36 rings
6 11 12 13 14 18 19 rings
6 12 14 15 16 21 22 rings
6 15 16 24 25 27 28 rings
6 3 4 27 28 31 33 rings
6 7 31 33 35 37 38 rings

> <PUBCHEM_HEAVY_ATOM_COUNT>
39

> <PUBCHEM_ATOM_DEF_STEREO_COUNT>
14

> <PUBCHEM_ATOM_UDEF_STEREO_COUNT>
0

> <PUBCHEM_BOND_DEF_STEREO_COUNT>
0

> <PUBCHEM_BOND_UDEF_STEREO_COUNT>
0

> <PUBCHEM_ISOTOPIC_ATOM_COUNT>
0

> <PUBCHEM_COMPONENT_COUNT>
1

> <PUBCHEM_CACTVS_TAUTO_COUNT>
1

> <PUBCHEM_CONFORMER_ID>
060E945400000001

> <PUBCHEM_MMFF94_ENERGY>
134.8843

> <PUBCHEM_FEATURE_SELFOVERLAP>
101.945

> <PUBCHEM_SHAPE_FINGERPRINT>
10 15 16486969630935421873
10076449 9 18334298643789288916
10299344 5 18334859407271696298
11135609 187 7925919192096227141
11135926 11 16877942720447199267
11181472 205 14201941381662728727
11315181 36 16950286200582803465
11456790 92 11384116345454154798
12107698 1 18410011022524585888
12166972 35 18410011060989725569
12596602 18 18202280338339286129
12857493 111 13984662550892060798
13383668 254 13696168240436117357
13782708 43 18411132532763420042
13811026 1 18261109720298630529
13914758 101 8358259258744440022
13947947 19 18113623425330059790
14118638 360 14346067586825447340
14251764 18 18334296461359995656
1454969 45 17967250892959440682
15131766 46 17343203428041809152
15183329 4 16950555598063946507
15301273 46 18335419067253853648
15361156 5 17676213514850498731
15439362 3 13047667607378833622
15461852 350 18343584062319323199
15849732 13 18272931626444703430
16087824 20 17677328300395225893
18608769 82 18186520999418301450
19301679 30 17345481371763633022
19611394 137 15769204081406664783
20028762 73 18408881849831869939
20105231 36 18409736140681630490
21267235 1 17967536744217747080
21792961 116 16660634117115233658
21987483 16 17627501976587650791
23522609 53 18117305621242695124
23559900 14 17386011736326291293
23569917 315 18341053012296613519
23576562 1 16226897808028189175
24771293 8 18261387909699952837
24893992 56 13398620667559970013
249057 3 17632856443474199798
2838139 119 13470683733064070523
3004659 81 16877662370250707652
335352 9 17749108903074498279
335507 130 18272373083903525323
350125 39 17968097508528602448
4017518 198 18273218599038758022
4112364 45 15984525824430131784
4149490 64 10807940375147083172
4325135 7 17022906740068084934
4340502 62 16845574222836751190
4516262 110 17974003144332888020
4625314 4 18272365391484924117
5028188 123 18341899610468400644
504579 68 17530682121459395543
59755656 215 17821726109549640226
6201320 215 11891592638286982135
9896288 288 17986394395242553057
9962374 69 18260546766092563181

> <PUBCHEM_SHAPE_MULTIPOLES>
743.91
24.62
2.2
1.58
2.07
0.04
-0.13
7.95
-1.65
0.72
-0.34
0.01
-0.03
-1.05

> <PUBCHEM_SHAPE_SELFOVERLAP>
1633.213

> <PUBCHEM_SHAPE_VOLUME>
392.1

> <PUBCHEM_COORDINATE_TYPE>
2
5
10

$$$$
