101634855
  -OEChem-11212002012D

159167  0     1  0  0  0  0  0999 V2000
   22.1241   -2.1484    0.0000 O   0  0  0  0  0  0  0  0  0  0  0  0
   21.5601   -2.4770    0.0000 O   0  0  0  0  0  0  0  0  0  0  0  0
   20.9028    1.2866    0.0000 O   0  0  0  0  0  0  0  0  0  0  0  0
   22.4086    1.0487    0.0000 O   0  0  0  0  0  0  0  0  0  0  0  0
   16.3933   -3.2832    0.0000 O   0  0  0  0  0  0  0  0  0  0  0  0
   23.4208    1.6821    0.0000 O   0  0  0  0  0  0  0  0  0  0  0  0
   19.1708    1.2799    0.0000 O   0  0  0  0  0  0  0  0  0  0  0  0
   14.6613   -3.2832    0.0000 O   0  0  0  0  0  0  0  0  0  0  0  0
   14.6613   -0.2832    0.0000 O   0  0  0  0  0  0  0  0  0  0  0  0
   12.9292   -1.2832    0.0000 O   0  0  0  0  0  0  0  0  0  0  0  0
   11.1972   -1.2832    0.0000 O   0  0  0  0  0  0  0  0  0  0  0  0
   11.1972   -4.2832    0.0000 O   0  0  0  0  0  0  0  0  0  0  0  0
    9.4651   -3.2832    0.0000 O   0  0  0  0  0  0  0  0  0  0  0  0
    8.5991   -1.7832    0.0000 O   0  0  0  0  0  0  0  0  0  0  0  0
    6.0010   -1.2832    0.0000 O   0  0  0  0  0  0  0  0  0  0  0  0
    6.0010   -3.2832    0.0000 O   0  0  0  0  0  0  0  0  0  0  0  0
    5.1350   -2.7832    0.0000 O   0  0  0  0  0  0  0  0  0  0  0  0
    2.5369   -1.2832    0.0000 O   0  0  0  0  0  0  0  0  0  0  0  0
    2.5369   -3.2832    0.0000 O   0  0  0  0  0  0  0  0  0  0  0  0
   21.7785   -1.2101    0.0000 C   0  0  2  0  0  0  0  0  0  0  0  0
   21.7746   -0.2101    0.0000 C   0  0  2  0  0  0  0  0  0  0  0  0
   20.9144   -1.7134    0.0000 C   0  0  2  0  0  0  0  0  0  0  0  0
   20.0464   -1.2168    0.0000 C   0  0  1  0  0  0  0  0  0  0  0  0
   20.9067    0.2866    0.0000 C   0  0  1  0  0  0  0  0  0  0  0  0
   22.7197    0.0983    0.0000 C   0  0  2  0  0  0  0  0  0  0  0  0
   19.1384   -1.7271    0.0000 C   0  0  2  0  0  0  0  0  0  0  0  0
   20.0426   -0.2168    0.0000 C   0  0  0  0  0  0  0  0  0  0  0  0
   22.7259   -1.5112    0.0000 C   0  0  0  0  0  0  0  0  0  0  0  0
   23.3064   -0.7042    0.0000 C   0  0  0  0  0  0  0  0  0  0  0  0
   20.9345   -2.7549    0.0000 C   0  0  0  0  0  0  0  0  0  0  0  0
   21.7708    0.7899    0.0000 C   0  0  0  0  0  0  0  0  0  0  0  0
   19.1344   -2.7687    0.0000 C   0  0  0  0  0  0  0  0  0  0  0  0
   18.2094   -1.1666    0.0000 C   0  0  0  0  0  0  0  0  0  0  0  0
   20.0385   -3.2861    0.0000 C   0  0  0  0  0  0  0  0  0  0  0  0
   19.1423   -0.7271    0.0000 C   0  0  0  0  0  0  0  0  0  0  0  0
   23.5274    0.6878    0.0000 C   0  0  0  0  0  0  0  0  0  0  0  0
   18.2011   -3.3221    0.0000 C   0  0  0  0  0  0  0  0  0  0  0  0
   17.2635   -1.6982    0.0000 C   0  0  0  0  0  0  0  0  0  0  0  0
   17.2594   -2.7832    0.0000 C   0  0  2  0  0  0  0  0  0  0  0  0
   24.4418    0.2830    0.0000 C   0  0  0  0  0  0  0  0  0  0  0  0
   20.0349    1.7832    0.0000 C   0  0  0  0  0  0  0  0  0  0  0  0
   15.5273   -2.7832    0.0000 C   0  0  2  0  0  0  0  0  0  0  0  0
   20.0310    2.7832    0.0000 C   0  0  0  0  0  0  0  0  0  0  0  0
   15.5273   -1.7832    0.0000 C   0  0  0  0  0  0  0  0  0  0  0  0
   14.6613   -1.2832    0.0000 C   0  0  1  0  0  0  0  0  0  0  0  0
   20.8951    3.2865    0.0000 C   0  0  0  0  0  0  0  0  0  0  0  0
   19.1631    3.2799    0.0000 C   0  0  0  0  0  0  0  0  0  0  0  0
   13.7953   -2.7832    0.0000 C   0  0  1  0  0  0  0  0  0  0  0  0
   13.7953   -1.7832    0.0000 C   0  0  1  0  0  0  0  0  0  0  0  0
   20.8913    4.2865    0.0000 C   0  0  0  0  0  0  0  0  0  0  0  0
   19.1592    4.2799    0.0000 C   0  0  0  0  0  0  0  0  0  0  0  0
   12.9292   -3.2832    0.0000 C   0  0  0  0  0  0  0  0  0  0  0  0
   20.0233    4.7832    0.0000 C   0  0  0  0  0  0  0  0  0  0  0  0
   12.0632   -1.7832    0.0000 C   0  0  2  0  0  0  0  0  0  0  0  0
   15.5273    0.2168    0.0000 C   0  0  0  0  0  0  0  0  0  0  0  0
   12.0632   -2.7832    0.0000 C   0  0  0  0  0  0  0  0  0  0  0  0
   11.1972   -3.2832    0.0000 C   0  0  1  0  0  0  0  0  0  0  0  0
   10.3312   -1.7832    0.0000 C   0  0  1  0  0  0  0  0  0  0  0  0
   10.3312   -2.7832    0.0000 C   0  0  1  0  0  0  0  0  0  0  0  0
    9.4651   -1.2832    0.0000 C   0  0  0  0  0  0  0  0  0  0  0  0
    8.5991   -2.7832    0.0000 C   0  0  2  0  0  0  0  0  0  0  0  0
   12.0632   -4.7832    0.0000 C   0  0  0  0  0  0  0  0  0  0  0  0
    7.7331   -3.2832    0.0000 C   0  0  0  0  0  0  0  0  0  0  0  0
    6.8671   -2.7832    0.0000 C   0  0  1  0  0  0  0  0  0  0  0  0
    6.8671   -1.7832    0.0000 C   0  0  1  0  0  0  0  0  0  0  0  0
    7.7331   -1.2832    0.0000 C   0  0  1  0  0  0  0  0  0  0  0  0
    7.7331   -0.2832    0.0000 C   0  0  0  0  0  0  0  0  0  0  0  0
    5.1350   -1.7832    0.0000 C   0  0  2  0  0  0  0  0  0  0  0  0
    4.2690   -1.2832    0.0000 C   0  0  0  0  0  0  0  0  0  0  0  0
    3.4030   -1.7832    0.0000 C   0  0  1  0  0  0  0  0  0  0  0  0
    3.4030   -2.7832    0.0000 C   0  0  1  0  0  0  0  0  0  0  0  0
    4.2690   -3.2832    0.0000 C   0  0  1  0  0  0  0  0  0  0  0  0
    6.0010   -4.2832    0.0000 C   0  0  0  0  0  0  0  0  0  0  0  0
    4.2690   -4.2832    0.0000 C   0  0  0  0  0  0  0  0  0  0  0  0
    2.5369   -0.2832    0.0000 C   0  0  0  0  0  0  0  0  0  0  0  0
   20.7809   -0.7889    0.0000 H   0  0  0  0  0  0  0  0  0  0  0  0
   20.3685    0.5945    0.0000 H   0  0  0  0  0  0  0  0  0  0  0  0
   19.8283    0.3650    0.0000 H   0  0  0  0  0  0  0  0  0  0  0  0
   19.4324   -0.3268    0.0000 H   0  0  0  0  0  0  0  0  0  0  0  0
   22.4770   -2.0790    0.0000 H   0  0  0  0  0  0  0  0  0  0  0  0
   23.2644   -1.8183    0.0000 H   0  0  0  0  0  0  0  0  0  0  0  0
   23.7688   -1.1171    0.0000 H   0  0  0  0  0  0  0  0  0  0  0  0
   23.7656   -0.2877    0.0000 H   0  0  0  0  0  0  0  0  0  0  0  0
   21.1547   -3.3344    0.0000 H   0  0  0  0  0  0  0  0  0  0  0  0
   21.5432   -2.6370    0.0000 H   0  0  0  0  0  0  0  0  0  0  0  0
   22.3908    0.7923    0.0000 H   0  0  0  0  0  0  0  0  0  0  0  0
   21.7684    1.4099    0.0000 H   0  0  0  0  0  0  0  0  0  0  0  0
   21.1508    0.7875    0.0000 H   0  0  0  0  0  0  0  0  0  0  0  0
   18.6158   -0.6984    0.0000 H   0  0  0  0  0  0  0  0  0  0  0  0
   17.8176   -0.6861    0.0000 H   0  0  0  0  0  0  0  0  0  0  0  0
   20.0432   -3.9060    0.0000 H   0  0  0  0  0  0  0  0  0  0  0  0
   22.7351   -2.2538    0.0000 H   0  0  0  0  0  0  0  0  0  0  0  0
   19.7622   -0.7295    0.0000 H   0  0  0  0  0  0  0  0  0  0  0  0
   19.1446   -0.1071    0.0000 H   0  0  0  0  0  0  0  0  0  0  0  0
   18.5223   -0.7247    0.0000 H   0  0  0  0  0  0  0  0  0  0  0  0
   21.6702   -3.0871    0.0000 H   0  0  0  0  0  0  0  0  0  0  0  0
   17.8056   -3.7996    0.0000 H   0  0  0  0  0  0  0  0  0  0  0  0
   18.6039   -3.7934    0.0000 H   0  0  0  0  0  0  0  0  0  0  0  0
   17.0567   -1.1137    0.0000 H   0  0  0  0  0  0  0  0  0  0  0  0
   16.6523   -1.8019    0.0000 H   0  0  0  0  0  0  0  0  0  0  0  0
   16.7230   -2.4722    0.0000 H   0  0  0  0  0  0  0  0  0  0  0  0
   22.8225    1.5103    0.0000 H   0  0  0  0  0  0  0  0  0  0  0  0
   24.1909   -0.2839    0.0000 H   0  0  0  0  0  0  0  0  0  0  0  0
   25.0088    0.0320    0.0000 H   0  0  0  0  0  0  0  0  0  0  0  0
   24.6928    0.8499    0.0000 H   0  0  0  0  0  0  0  0  0  0  0  0
   15.5273   -3.4032    0.0000 H   0  0  0  0  0  0  0  0  0  0  0  0
   16.1379   -1.8908    0.0000 H   0  0  0  0  0  0  0  0  0  0  0  0
   15.7394   -1.2006    0.0000 H   0  0  0  0  0  0  0  0  0  0  0  0
   15.1982   -0.9732    0.0000 H   0  0  0  0  0  0  0  0  0  0  0  0
   21.4332    2.9786    0.0000 H   0  0  0  0  0  0  0  0  0  0  0  0
   18.6273    2.9678    0.0000 H   0  0  0  0  0  0  0  0  0  0  0  0
   13.7953   -3.4032    0.0000 H   0  0  0  0  0  0  0  0  0  0  0  0
   13.7953   -1.1632    0.0000 H   0  0  0  0  0  0  0  0  0  0  0  0
   21.4270    4.5986    0.0000 H   0  0  0  0  0  0  0  0  0  0  0  0
   18.6211    4.5878    0.0000 H   0  0  0  0  0  0  0  0  0  0  0  0
   12.6192   -2.7463    0.0000 H   0  0  0  0  0  0  0  0  0  0  0  0
   12.3923   -3.5932    0.0000 H   0  0  0  0  0  0  0  0  0  0  0  0
   13.2392   -3.8201    0.0000 H   0  0  0  0  0  0  0  0  0  0  0  0
   20.0209    5.4032    0.0000 H   0  0  0  0  0  0  0  0  0  0  0  0
   12.6002   -2.0932    0.0000 H   0  0  0  0  0  0  0  0  0  0  0  0
   15.8373   -0.3201    0.0000 H   0  0  0  0  0  0  0  0  0  0  0  0
   16.0643    0.5268    0.0000 H   0  0  0  0  0  0  0  0  0  0  0  0
   15.2173    0.7537    0.0000 H   0  0  0  0  0  0  0  0  0  0  0  0
   12.2753   -3.3658    0.0000 H   0  0  0  0  0  0  0  0  0  0  0  0
   12.6738   -2.6755    0.0000 H   0  0  0  0  0  0  0  0  0  0  0  0
   11.7341   -3.5932    0.0000 H   0  0  0  0  0  0  0  0  0  0  0  0
   10.3312   -1.1632    0.0000 H   0  0  0  0  0  0  0  0  0  0  0  0
    9.7942   -2.4732    0.0000 H   0  0  0  0  0  0  0  0  0  0  0  0
    9.7751   -0.7463    0.0000 H   0  0  0  0  0  0  0  0  0  0  0  0
    8.9282   -0.9732    0.0000 H   0  0  0  0  0  0  0  0  0  0  0  0
    9.1551   -1.8201    0.0000 H   0  0  0  0  0  0  0  0  0  0  0  0
    8.5991   -3.4032    0.0000 H   0  0  0  0  0  0  0  0  0  0  0  0
   11.7532   -5.3201    0.0000 H   0  0  0  0  0  0  0  0  0  0  0  0
   12.6002   -5.0932    0.0000 H   0  0  0  0  0  0  0  0  0  0  0  0
   12.3732   -4.2463    0.0000 H   0  0  0  0  0  0  0  0  0  0  0  0
    7.3346   -3.7581    0.0000 H   0  0  0  0  0  0  0  0  0  0  0  0
    8.1316   -3.7581    0.0000 H   0  0  0  0  0  0  0  0  0  0  0  0
    6.3301   -2.4732    0.0000 H   0  0  0  0  0  0  0  0  0  0  0  0
    6.8671   -1.1632    0.0000 H   0  0  0  0  0  0  0  0  0  0  0  0
    8.2700   -0.9732    0.0000 H   0  0  0  0  0  0  0  0  0  0  0  0
    8.3531   -0.2832    0.0000 H   0  0  0  0  0  0  0  0  0  0  0  0
    7.7331    0.3368    0.0000 H   0  0  0  0  0  0  0  0  0  0  0  0
    7.1131   -0.2832    0.0000 H   0  0  0  0  0  0  0  0  0  0  0  0
    5.1350   -1.1632    0.0000 H   0  0  0  0  0  0  0  0  0  0  0  0
    4.6675   -0.8082    0.0000 H   0  0  0  0  0  0  0  0  0  0  0  0
    3.8705   -0.8082    0.0000 H   0  0  0  0  0  0  0  0  0  0  0  0
    2.8660   -2.0932    0.0000 H   0  0  0  0  0  0  0  0  0  0  0  0
    3.4030   -3.4032    0.0000 H   0  0  0  0  0  0  0  0  0  0  0  0
    4.8059   -3.5932    0.0000 H   0  0  0  0  0  0  0  0  0  0  0  0
    5.3810   -4.2832    0.0000 H   0  0  0  0  0  0  0  0  0  0  0  0
    6.0010   -4.9032    0.0000 H   0  0  0  0  0  0  0  0  0  0  0  0
    6.6210   -4.2832    0.0000 H   0  0  0  0  0  0  0  0  0  0  0  0
    3.6490   -4.2832    0.0000 H   0  0  0  0  0  0  0  0  0  0  0  0
    4.2690   -4.9032    0.0000 H   0  0  0  0  0  0  0  0  0  0  0  0
    4.8890   -4.2832    0.0000 H   0  0  0  0  0  0  0  0  0  0  0  0
    2.0000   -2.9732    0.0000 H   0  0  0  0  0  0  0  0  0  0  0  0
    3.1569   -0.2832    0.0000 H   0  0  0  0  0  0  0  0  0  0  0  0
    2.5369    0.3368    0.0000 H   0  0  0  0  0  0  0  0  0  0  0  0
    1.9169   -0.2832    0.0000 H   0  0  0  0  0  0  0  0  0  0  0  0
 20  1  1  1  0  0  0
  1 92  1  0  0  0  0
 22  2  1  1  0  0  0
  2 96  1  0  0  0  0
 24  3  1  1  0  0  0
  3 41  1  0  0  0  0
 25  4  1  1  0  0  0
  4102  1  0  0  0  0
 39  5  1  1  0  0  0
 42  5  1  6  0  0  0
  6 36  2  0  0  0  0
  7 41  2  0  0  0  0
  8 42  1  0  0  0  0
  8 48  1  0  0  0  0
 45  9  1  1  0  0  0
  9 55  1  0  0  0  0
 49 10  1  1  0  0  0
 54 10  1  1  0  0  0
 11 54  1  0  0  0  0
 11 58  1  0  0  0  0
 57 12  1  6  0  0  0
 12 62  1  0  0  0  0
 59 13  1  6  0  0  0
 61 13  1  1  0  0  0
 14 61  1  0  0  0  0
 14 66  1  0  0  0  0
 65 15  1  6  0  0  0
 68 15  1  6  0  0  0
 64 16  1  6  0  0  0
 16 73  1  0  0  0  0
 17 68  1  0  0  0  0
 17 72  1  0  0  0  0
 70 18  1  1  0  0  0
 18 75  1  0  0  0  0
 71 19  1  1  0  0  0
 19156  1  0  0  0  0
 20 21  1  0  0  0  0
 20 22  1  0  0  0  0
 20 28  1  0  0  0  0
 21 24  1  0  0  0  0
 21 25  1  0  0  0  0
 21 31  1  1  0  0  0
 22 23  1  0  0  0  0
 22 30  1  0  0  0  0
 23 26  1  0  0  0  0
 23 27  1  0  0  0  0
 23 76  1  6  0  0  0
 24 27  1  0  0  0  0
 24 77  1  0  0  0  0
 25 29  1  0  0  0  0
 25 36  1  0  0  0  0
 26 32  1  0  0  0  0
 26 33  1  0  0  0  0
 26 35  1  1  0  0  0
 27 78  1  0  0  0  0
 27 79  1  0  0  0  0
 28 29  1  0  0  0  0
 28 80  1  0  0  0  0
 28 81  1  0  0  0  0
 29 82  1  0  0  0  0
 29 83  1  0  0  0  0
 30 34  1  0  0  0  0
 30 84  1  0  0  0  0
 30 85  1  0  0  0  0
 31 86  1  0  0  0  0
 31 87  1  0  0  0  0
 31 88  1  0  0  0  0
 32 34  2  0  0  0  0
 32 37  1  0  0  0  0
 33 38  1  0  0  0  0
 33 89  1  0  0  0  0
 33 90  1  0  0  0  0
 34 91  1  0  0  0  0
 35 93  1  0  0  0  0
 35 94  1  0  0  0  0
 35 95  1  0  0  0  0
 36 40  1  0  0  0  0
 37 39  1  0  0  0  0
 37 97  1  0  0  0  0
 37 98  1  0  0  0  0
 38 39  1  0  0  0  0
 38 99  1  0  0  0  0
 38100  1  0  0  0  0
 39101  1  0  0  0  0
 40103  1  0  0  0  0
 40104  1  0  0  0  0
 40105  1  0  0  0  0
 41 43  1  0  0  0  0
 42 44  1  0  0  0  0
 42106  1  0  0  0  0
 43 46  2  0  0  0  0
 43 47  1  0  0  0  0
 44 45  1  0  0  0  0
 44107  1  0  0  0  0
 44108  1  0  0  0  0
 45 49  1  0  0  0  0
 45109  1  0  0  0  0
 46 50  1  0  0  0  0
 46110  1  0  0  0  0
 47 51  2  0  0  0  0
 47111  1  0  0  0  0
 48 49  1  0  0  0  0
 48 52  1  6  0  0  0
 48112  1  0  0  0  0
 49113  1  0  0  0  0
 50 53  2  0  0  0  0
 50114  1  0  0  0  0
 51 53  1  0  0  0  0
 51115  1  0  0  0  0
 52116  1  0  0  0  0
 52117  1  0  0  0  0
 52118  1  0  0  0  0
 53119  1  0  0  0  0
 54 56  1  0  0  0  0
 54120  1  0  0  0  0
 55121  1  0  0  0  0
 55122  1  0  0  0  0
 55123  1  0  0  0  0
 56 57  1  0  0  0  0
 56124  1  0  0  0  0
 56125  1  0  0  0  0
 57 59  1  0  0  0  0
 57126  1  0  0  0  0
 58 59  1  0  0  0  0
 58 60  1  1  0  0  0
 58127  1  0  0  0  0
 59128  1  0  0  0  0
 60129  1  0  0  0  0
 60130  1  0  0  0  0
 60131  1  0  0  0  0
 61 63  1  0  0  0  0
 61132  1  0  0  0  0
 62133  1  0  0  0  0
 62134  1  0  0  0  0
 62135  1  0  0  0  0
 63 64  1  0  0  0  0
 63136  1  0  0  0  0
 63137  1  0  0  0  0
 64 65  1  0  0  0  0
 64138  1  0  0  0  0
 65 66  1  0  0  0  0
 65139  1  0  0  0  0
 66 67  1  1  0  0  0
 66140  1  0  0  0  0
 67141  1  0  0  0  0
 67142  1  0  0  0  0
 67143  1  0  0  0  0
 68 69  1  0  0  0  0
 68144  1  0  0  0  0
 69 70  1  0  0  0  0
 69145  1  0  0  0  0
 69146  1  0  0  0  0
 70 71  1  0  0  0  0
 70147  1  0  0  0  0
 71 72  1  0  0  0  0
 71148  1  0  0  0  0
 72 74  1  6  0  0  0
 72149  1  0  0  0  0
 73150  1  0  0  0  0
 73151  1  0  0  0  0
 73152  1  0  0  0  0
 74153  1  0  0  0  0
 74154  1  0  0  0  0
 74155  1  0  0  0  0
 75157  1  0  0  0  0
 75158  1  0  0  0  0
 75159  1  0  0  0  0
M  END
> <PUBCHEM_COMPOUND_CID>
101634855

> <PUBCHEM_COMPOUND_CANONICALIZED>
1

> <PUBCHEM_CACTVS_COMPLEXITY>
2020

> <PUBCHEM_CACTVS_HBOND_ACCEPTOR>
19

> <PUBCHEM_CACTVS_HBOND_DONOR>
4

> <PUBCHEM_CACTVS_ROTATABLE_BOND>
16

> <PUBCHEM_CACTVS_SUBSKEYS>
AAADcfB8PgAAAAAAAAAAAAAAAAAAAYAAAAA0aNEiAAAAAGCBAAAAGgAACAAAD1SwmAMyCIAABgCIAqDSCAICAAAkAAAIiAFACMgZNjKANRiicQAlwAEPqYfK7PzPgAAAAAAAAADCAAYQADCAAYQADAAAAA==

> <PUBCHEM_IUPAC_OPENEYE_NAME>
[(3S,8S,9R,10R,12R,13S,14R,17S)-17-acetyl-8,14,17-trihydroxy-3-[(2R,4S,5R,6R)-5-[(2S,4S,5R,6R)-5-[(2S,4S,5R,6R)-5-[(2S,4S,5R,6R)-5-hydroxy-4-methoxy-6-methyl-tetrahydropyran-2-yl]oxy-4-methoxy-6-methyl-tetrahydropyran-2-yl]oxy-4-methoxy-6-methyl-tetrahydropyran-2-yl]oxy-4-methoxy-6-methyl-tetrahydropyran-2-yl]oxy-10,13-dimethyl-1,2,3,4,7,9,11,12,15,16-decahydrocyclopenta[a]phenanthren-12-yl] benzoate

> <PUBCHEM_IUPAC_CAS_NAME>
benzoic acid [(3S,8S,9R,10R,12R,13S,14R,17S)-17-acetyl-8,14,17-trihydroxy-3-[[(2R,4S,5R,6R)-5-[[(2S,4S,5R,6R)-5-[[(2S,4S,5R,6R)-5-[[(2S,4S,5R,6R)-5-hydroxy-4-methoxy-6-methyl-2-oxanyl]oxy]-4-methoxy-6-methyl-2-oxanyl]oxy]-4-methoxy-6-methyl-2-oxanyl]oxy]-4-methoxy-6-methyl-2-oxanyl]oxy]-10,13-dimethyl-1,2,3,4,7,9,11,12,15,16-decahydrocyclopenta[a]phenanthren-12-yl] ester

> <PUBCHEM_IUPAC_NAME_MARKUP>
[(3<I>S</I>,8<I>S</I>,9<I>R</I>,10<I>R</I>,12<I>R</I>,13<I>S</I>,14<I>R</I>,17<I>S</I>)-17-acetyl-8,14,17-trihydroxy-3-[(2<I>R</I>,4<I>S</I>,5<I>R</I>,6<I>R</I>)-5-[(2<I>S</I>,4<I>S</I>,5<I>R</I>,6<I>R</I>)-5-[(2<I>S</I>,4<I>S</I>,5<I>R</I>,6<I>R</I>)-5-[(2<I>S</I>,4<I>S</I>,5<I>R</I>,6<I>R</I>)-5-hydroxy-4-methoxy-6-methyloxan-2-yl]oxy-4-methoxy-6-methyloxan-2-yl]oxy-4-methoxy-6-methyloxan-2-yl]oxy-4-methoxy-6-methyloxan-2-yl]oxy-10,13-dimethyl-1,2,3,4,7,9,11,12,15,16-decahydrocyclopenta[a]phenanthren-12-yl] benzoate

> <PUBCHEM_IUPAC_NAME>
[(3S,8S,9R,10R,12R,13S,14R,17S)-17-acetyl-8,14,17-trihydroxy-3-[(2R,4S,5R,6R)-5-[(2S,4S,5R,6R)-5-[(2S,4S,5R,6R)-5-[(2S,4S,5R,6R)-5-hydroxy-4-methoxy-6-methyloxan-2-yl]oxy-4-methoxy-6-methyloxan-2-yl]oxy-4-methoxy-6-methyloxan-2-yl]oxy-4-methoxy-6-methyloxan-2-yl]oxy-10,13-dimethyl-1,2,3,4,7,9,11,12,15,16-decahydrocyclopenta[a]phenanthren-12-yl] benzoate

> <PUBCHEM_IUPAC_SYSTEMATIC_NAME>
[(3S,8S,9R,10R,12R,13S,14R,17S)-17-ethanoyl-3-[(2R,4S,5R,6R)-4-methoxy-5-[(2S,4S,5R,6R)-4-methoxy-5-[(2S,4S,5R,6R)-4-methoxy-5-[(2S,4S,5R,6R)-4-methoxy-6-methyl-5-oxidanyl-oxan-2-yl]oxy-6-methyl-oxan-2-yl]oxy-6-methyl-oxan-2-yl]oxy-6-methyl-oxan-2-yl]oxy-10,13-dimethyl-8,14,17-tris(oxidanyl)-1,2,3,4,7,9,11,12,15,16-decahydrocyclopenta[a]phenanthren-12-yl] benzoate

> <PUBCHEM_IUPAC_TRADITIONAL_NAME>
benzoic acid [(3S,8S,9R,10R,12R,13S,14R,17S)-17-acetyl-8,14,17-trihydroxy-3-[(2R,4S,5R,6R)-5-[(2S,4S,5R,6R)-5-[(2S,4S,5R,6R)-5-[(2S,4S,5R,6R)-5-hydroxy-4-methoxy-6-methyl-tetrahydropyran-2-yl]oxy-4-methoxy-6-methyl-tetrahydropyran-2-yl]oxy-4-methoxy-6-methyl-tetrahydropyran-2-yl]oxy-4-methoxy-6-methyl-tetrahydropyran-2-yl]oxy-10,13-dimethyl-1,2,3,4,7,9,11,12,15,16-decahydrocyclopenta[a]phenanthren-12-yl] ester

> <PUBCHEM_IUPAC_INCHI>
InChI=1S/C56H84O19/c1-29-47(58)37(63-8)24-44(67-29)73-49-31(3)69-46(26-39(49)65-10)75-50-32(4)70-45(27-40(50)66-11)74-48-30(2)68-43(25-38(48)64-9)71-36-18-19-52(6)35(23-36)17-20-55(61)41(52)28-42(72-51(59)34-15-13-12-14-16-34)53(7)54(60,33(5)57)21-22-56(53,55)62/h12-17,29-32,36-50,58,60-62H,18-28H2,1-11H3/t29-,30-,31-,32-,36+,37+,38+,39+,40+,41-,42-,43+,44+,45+,46+,47-,48-,49-,50-,52+,53-,54-,55+,56-/m1/s1

> <PUBCHEM_IUPAC_INCHIKEY>
PTVMWMUODZCOFZ-DHZLCZSBSA-N

> <PUBCHEM_XLOGP3_AA>
3.5

> <PUBCHEM_EXACT_MASS>
1060.56068

> <PUBCHEM_MOLECULAR_FORMULA>
C56H84O19

> <PUBCHEM_MOLECULAR_WEIGHT>
1061.3

> <PUBCHEM_OPENEYE_CAN_SMILES>
CC1C(C(CC(O1)OC2C(OC(CC2OC)OC3C(OC(CC3OC)OC4C(OC(CC4OC)OC5CCC6(C7CC(C8(C(CCC8(C7(CC=C6C5)O)O)(C(=O)C)O)C)OC(=O)C9=CC=CC=C9)C)C)C)C)OC)O

> <PUBCHEM_OPENEYE_ISO_SMILES>
C[C@@H]1[C@H]([C@H](C[C@@H](O1)O[C@@H]2[C@H](O[C@H](C[C@@H]2OC)O[C@@H]3[C@H](O[C@H](C[C@@H]3OC)O[C@@H]4[C@H](O[C@H](C[C@@H]4OC)O[C@H]5CC[C@@]6([C@H]7C[C@H]([C@@]8([C@@](CC[C@@]8([C@@]7(CC=C6C5)O)O)(C(=O)C)O)C)OC(=O)C9=CC=CC=C9)C)C)C)C)OC)O

> <PUBCHEM_CACTVS_TPSA>
235

> <PUBCHEM_MONOISOTOPIC_WEIGHT>
1060.56068

> <PUBCHEM_TOTAL_CHARGE>
0

> <PUBCHEM_HEAVY_ATOM_COUNT>
75

> <PUBCHEM_ATOM_DEF_STEREO_COUNT>
24

> <PUBCHEM_ATOM_UDEF_STEREO_COUNT>
0

> <PUBCHEM_BOND_DEF_STEREO_COUNT>
0

> <PUBCHEM_BOND_UDEF_STEREO_COUNT>
0

> <PUBCHEM_ISOTOPIC_ATOM_COUNT>
0

> <PUBCHEM_COMPONENT_COUNT>
1

> <PUBCHEM_CACTVS_TAUTO_COUNT>
-1

> <PUBCHEM_COORDINATE_TYPE>
1
5
255

> <PUBCHEM_BONDANNOTATIONS>
20  1  5
49  10  5
54  10  5
57  12  6
59  13  6
61  13  5
65  15  6
68  15  6
64  16  6
70  18  5
71  19  5
22  2  5
21  31  5
23  76  6
26  35  5
24  3  5
25  4  5
43  46  8
43  47  8
46  50  8
47  51  8
48  52  6
39  5  5
42  5  6
50  53  8
51  53  8
58  60  5
66  67  5
72  74  6
45  9  5

$$$$
