101634857
  -OEChem-11212002122D

136143  0     1  0  0  0  0  0999 V2000
   18.6600   -2.1484    0.0000 O   0  0  0  0  0  0  0  0  0  0  0  0
   18.0960   -2.4770    0.0000 O   0  0  0  0  0  0  0  0  0  0  0  0
   17.4387    1.2866    0.0000 O   0  0  0  0  0  0  0  0  0  0  0  0
   12.9292   -3.2832    0.0000 O   0  0  0  0  0  0  0  0  0  0  0  0
   18.8918    1.7917    0.0000 O   0  0  0  0  0  0  0  0  0  0  0  0
   15.7067    1.2799    0.0000 O   0  0  0  0  0  0  0  0  0  0  0  0
   11.1972   -3.2832    0.0000 O   0  0  0  0  0  0  0  0  0  0  0  0
   11.1972   -0.2832    0.0000 O   0  0  0  0  0  0  0  0  0  0  0  0
    9.4651   -1.2832    0.0000 O   0  0  0  0  0  0  0  0  0  0  0  0
    7.7331   -1.2832    0.0000 O   0  0  0  0  0  0  0  0  0  0  0  0
    7.7331   -4.2832    0.0000 O   0  0  0  0  0  0  0  0  0  0  0  0
    6.0010   -3.2832    0.0000 O   0  0  0  0  0  0  0  0  0  0  0  0
    4.2690   -3.2832    0.0000 O   0  0  0  0  0  0  0  0  0  0  0  0
    4.2690   -0.2832    0.0000 O   0  0  0  0  0  0  0  0  0  0  0  0
    2.5369   -1.2832    0.0000 O   0  0  0  0  0  0  0  0  0  0  0  0
   18.3144   -1.2101    0.0000 C   0  0  2  0  0  0  0  0  0  0  0  0
   18.3105   -0.2101    0.0000 C   0  0  2  0  0  0  0  0  0  0  0  0
   17.4503   -1.7134    0.0000 C   0  0  2  0  0  0  0  0  0  0  0  0
   16.5823   -1.2168    0.0000 C   0  0  1  0  0  0  0  0  0  0  0  0
   17.4426    0.2866    0.0000 C   0  0  1  0  0  0  0  0  0  0  0  0
   15.6743   -1.7271    0.0000 C   0  0  2  0  0  0  0  0  0  0  0  0
   19.2556    0.0983    0.0000 C   0  0  3  0  0  0  0  0  0  0  0  0
   16.5785   -0.2168    0.0000 C   0  0  0  0  0  0  0  0  0  0  0  0
   19.2618   -1.5112    0.0000 C   0  0  0  0  0  0  0  0  0  0  0  0
   19.8423   -0.7042    0.0000 C   0  0  0  0  0  0  0  0  0  0  0  0
   17.4704   -2.7549    0.0000 C   0  0  0  0  0  0  0  0  0  0  0  0
   18.3067    0.7899    0.0000 C   0  0  0  0  0  0  0  0  0  0  0  0
   15.6703   -2.7687    0.0000 C   0  0  0  0  0  0  0  0  0  0  0  0
   14.7453   -1.1666    0.0000 C   0  0  0  0  0  0  0  0  0  0  0  0
   16.5744   -3.2861    0.0000 C   0  0  0  0  0  0  0  0  0  0  0  0
   15.6782   -0.7271    0.0000 C   0  0  0  0  0  0  0  0  0  0  0  0
   14.7370   -3.3221    0.0000 C   0  0  0  0  0  0  0  0  0  0  0  0
   19.5626    1.0500    0.0000 C   0  0  0  0  0  0  0  0  0  0  0  0
   13.7994   -1.6982    0.0000 C   0  0  0  0  0  0  0  0  0  0  0  0
   13.7953   -2.7832    0.0000 C   0  0  2  0  0  0  0  0  0  0  0  0
   20.5403    1.2600    0.0000 C   0  0  0  0  0  0  0  0  0  0  0  0
   16.5708    1.7832    0.0000 C   0  0  0  0  0  0  0  0  0  0  0  0
   12.0632   -2.7832    0.0000 C   0  0  2  0  0  0  0  0  0  0  0  0
   16.5669    2.7832    0.0000 C   0  0  0  0  0  0  0  0  0  0  0  0
   12.0632   -1.7832    0.0000 C   0  0  0  0  0  0  0  0  0  0  0  0
   11.1972   -1.2832    0.0000 C   0  0  1  0  0  0  0  0  0  0  0  0
   17.4310    3.2865    0.0000 C   0  0  0  0  0  0  0  0  0  0  0  0
   15.6990    3.2799    0.0000 C   0  0  0  0  0  0  0  0  0  0  0  0
   10.3312   -2.7832    0.0000 C   0  0  1  0  0  0  0  0  0  0  0  0
   10.3312   -1.7832    0.0000 C   0  0  1  0  0  0  0  0  0  0  0  0
   17.4272    4.2865    0.0000 C   0  0  0  0  0  0  0  0  0  0  0  0
   15.6951    4.2799    0.0000 C   0  0  0  0  0  0  0  0  0  0  0  0
    9.4651   -3.2832    0.0000 C   0  0  0  0  0  0  0  0  0  0  0  0
   16.5592    4.7832    0.0000 C   0  0  0  0  0  0  0  0  0  0  0  0
    8.5991   -1.7832    0.0000 C   0  0  2  0  0  0  0  0  0  0  0  0
   12.0632    0.2168    0.0000 C   0  0  0  0  0  0  0  0  0  0  0  0
    8.5991   -2.7832    0.0000 C   0  0  0  0  0  0  0  0  0  0  0  0
    7.7331   -3.2832    0.0000 C   0  0  1  0  0  0  0  0  0  0  0  0
    6.8671   -1.7832    0.0000 C   0  0  1  0  0  0  0  0  0  0  0  0
    6.8671   -2.7832    0.0000 C   0  0  1  0  0  0  0  0  0  0  0  0
    6.0010   -1.2832    0.0000 C   0  0  0  0  0  0  0  0  0  0  0  0
    5.1350   -2.7832    0.0000 C   0  0  2  0  0  0  0  0  0  0  0  0
    5.1350   -1.7832    0.0000 C   0  0  0  0  0  0  0  0  0  0  0  0
    8.5991   -4.7832    0.0000 C   0  0  0  0  0  0  0  0  0  0  0  0
    4.2690   -1.2832    0.0000 C   0  0  1  0  0  0  0  0  0  0  0  0
    3.4030   -2.7832    0.0000 C   0  0  1  0  0  0  0  0  0  0  0  0
    3.4030   -1.7832    0.0000 C   0  0  1  0  0  0  0  0  0  0  0  0
    2.5369   -3.2832    0.0000 C   0  0  0  0  0  0  0  0  0  0  0  0
    3.4030    0.2168    0.0000 C   0  0  0  0  0  0  0  0  0  0  0  0
   17.3168   -0.7889    0.0000 H   0  0  0  0  0  0  0  0  0  0  0  0
   16.9044    0.5945    0.0000 H   0  0  0  0  0  0  0  0  0  0  0  0
   19.8677    0.1968    0.0000 H   0  0  0  0  0  0  0  0  0  0  0  0
   16.3642    0.3650    0.0000 H   0  0  0  0  0  0  0  0  0  0  0  0
   15.9683   -0.3268    0.0000 H   0  0  0  0  0  0  0  0  0  0  0  0
   19.0129   -2.0790    0.0000 H   0  0  0  0  0  0  0  0  0  0  0  0
   19.8003   -1.8183    0.0000 H   0  0  0  0  0  0  0  0  0  0  0  0
   20.3047   -1.1171    0.0000 H   0  0  0  0  0  0  0  0  0  0  0  0
   20.3015   -0.2877    0.0000 H   0  0  0  0  0  0  0  0  0  0  0  0
   17.6906   -3.3344    0.0000 H   0  0  0  0  0  0  0  0  0  0  0  0
   18.0791   -2.6370    0.0000 H   0  0  0  0  0  0  0  0  0  0  0  0
   18.9267    0.7923    0.0000 H   0  0  0  0  0  0  0  0  0  0  0  0
   18.3043    1.4099    0.0000 H   0  0  0  0  0  0  0  0  0  0  0  0
   17.6867    0.7875    0.0000 H   0  0  0  0  0  0  0  0  0  0  0  0
   15.1517   -0.6984    0.0000 H   0  0  0  0  0  0  0  0  0  0  0  0
   14.3535   -0.6861    0.0000 H   0  0  0  0  0  0  0  0  0  0  0  0
   16.5791   -3.9060    0.0000 H   0  0  0  0  0  0  0  0  0  0  0  0
   19.2710   -2.2538    0.0000 H   0  0  0  0  0  0  0  0  0  0  0  0
   16.2981   -0.7295    0.0000 H   0  0  0  0  0  0  0  0  0  0  0  0
   15.6805   -0.1071    0.0000 H   0  0  0  0  0  0  0  0  0  0  0  0
   15.0582   -0.7247    0.0000 H   0  0  0  0  0  0  0  0  0  0  0  0
   18.2061   -3.0871    0.0000 H   0  0  0  0  0  0  0  0  0  0  0  0
   14.3415   -3.7996    0.0000 H   0  0  0  0  0  0  0  0  0  0  0  0
   15.1398   -3.7934    0.0000 H   0  0  0  0  0  0  0  0  0  0  0  0
   13.5926   -1.1137    0.0000 H   0  0  0  0  0  0  0  0  0  0  0  0
   13.1882   -1.8019    0.0000 H   0  0  0  0  0  0  0  0  0  0  0  0
   13.2589   -2.4722    0.0000 H   0  0  0  0  0  0  0  0  0  0  0  0
   20.6705    0.6538    0.0000 H   0  0  0  0  0  0  0  0  0  0  0  0
   21.1464    1.3902    0.0000 H   0  0  0  0  0  0  0  0  0  0  0  0
   20.4101    1.8662    0.0000 H   0  0  0  0  0  0  0  0  0  0  0  0
   12.0632   -3.4032    0.0000 H   0  0  0  0  0  0  0  0  0  0  0  0
   12.6738   -1.8908    0.0000 H   0  0  0  0  0  0  0  0  0  0  0  0
   12.2753   -1.2006    0.0000 H   0  0  0  0  0  0  0  0  0  0  0  0
   11.7341   -0.9732    0.0000 H   0  0  0  0  0  0  0  0  0  0  0  0
   17.9691    2.9786    0.0000 H   0  0  0  0  0  0  0  0  0  0  0  0
   15.1632    2.9678    0.0000 H   0  0  0  0  0  0  0  0  0  0  0  0
   10.3312   -3.4032    0.0000 H   0  0  0  0  0  0  0  0  0  0  0  0
    9.7942   -2.0932    0.0000 H   0  0  0  0  0  0  0  0  0  0  0  0
   17.9629    4.5986    0.0000 H   0  0  0  0  0  0  0  0  0  0  0  0
   15.1570    4.5878    0.0000 H   0  0  0  0  0  0  0  0  0  0  0  0
    9.1551   -2.7463    0.0000 H   0  0  0  0  0  0  0  0  0  0  0  0
    8.9282   -3.5932    0.0000 H   0  0  0  0  0  0  0  0  0  0  0  0
    9.7751   -3.8201    0.0000 H   0  0  0  0  0  0  0  0  0  0  0  0
   16.5568    5.4032    0.0000 H   0  0  0  0  0  0  0  0  0  0  0  0
    8.5991   -1.1632    0.0000 H   0  0  0  0  0  0  0  0  0  0  0  0
   12.3732   -0.3201    0.0000 H   0  0  0  0  0  0  0  0  0  0  0  0
   12.6002    0.5268    0.0000 H   0  0  0  0  0  0  0  0  0  0  0  0
   11.7532    0.7537    0.0000 H   0  0  0  0  0  0  0  0  0  0  0  0
    8.8112   -3.3658    0.0000 H   0  0  0  0  0  0  0  0  0  0  0  0
    9.2097   -2.6755    0.0000 H   0  0  0  0  0  0  0  0  0  0  0  0
    8.2700   -3.5932    0.0000 H   0  0  0  0  0  0  0  0  0  0  0  0
    6.8671   -1.1632    0.0000 H   0  0  0  0  0  0  0  0  0  0  0  0
    6.3301   -2.4732    0.0000 H   0  0  0  0  0  0  0  0  0  0  0  0
    6.3110   -0.7463    0.0000 H   0  0  0  0  0  0  0  0  0  0  0  0
    5.4641   -0.9732    0.0000 H   0  0  0  0  0  0  0  0  0  0  0  0
    5.6910   -1.8201    0.0000 H   0  0  0  0  0  0  0  0  0  0  0  0
    5.1350   -3.4032    0.0000 H   0  0  0  0  0  0  0  0  0  0  0  0
    5.7456   -1.8908    0.0000 H   0  0  0  0  0  0  0  0  0  0  0  0
    5.3471   -1.2006    0.0000 H   0  0  0  0  0  0  0  0  0  0  0  0
    8.2891   -5.3201    0.0000 H   0  0  0  0  0  0  0  0  0  0  0  0
    9.1360   -5.0932    0.0000 H   0  0  0  0  0  0  0  0  0  0  0  0
    8.9091   -4.2463    0.0000 H   0  0  0  0  0  0  0  0  0  0  0  0
    4.8059   -0.9732    0.0000 H   0  0  0  0  0  0  0  0  0  0  0  0
    3.4030   -1.1632    0.0000 H   0  0  0  0  0  0  0  0  0  0  0  0
    3.4030   -3.4032    0.0000 H   0  0  0  0  0  0  0  0  0  0  0  0
    2.2269   -2.7463    0.0000 H   0  0  0  0  0  0  0  0  0  0  0  0
    2.0000   -3.5932    0.0000 H   0  0  0  0  0  0  0  0  0  0  0  0
    2.8469   -3.8201    0.0000 H   0  0  0  0  0  0  0  0  0  0  0  0
    2.0000   -1.5932    0.0000 H   0  0  0  0  0  0  0  0  0  0  0  0
    3.7130    0.7537    0.0000 H   0  0  0  0  0  0  0  0  0  0  0  0
    2.8660    0.5268    0.0000 H   0  0  0  0  0  0  0  0  0  0  0  0
    3.0930   -0.3201    0.0000 H   0  0  0  0  0  0  0  0  0  0  0  0
 16  1  1  1  0  0  0
  1 82  1  0  0  0  0
 18  2  1  1  0  0  0
  2 86  1  0  0  0  0
 20  3  1  1  0  0  0
  3 37  1  0  0  0  0
 35  4  1  1  0  0  0
 38  4  1  6  0  0  0
  5 33  2  0  0  0  0
  6 37  2  0  0  0  0
  7 38  1  0  0  0  0
  7 44  1  0  0  0  0
 41  8  1  1  0  0  0
  8 51  1  0  0  0  0
 45  9  1  1  0  0  0
 50  9  1  1  0  0  0
 10 50  1  0  0  0  0
 10 54  1  0  0  0  0
 53 11  1  6  0  0  0
 11 59  1  0  0  0  0
 55 12  1  6  0  0  0
 57 12  1  6  0  0  0
 13 57  1  0  0  0  0
 13 61  1  0  0  0  0
 60 14  1  1  0  0  0
 14 64  1  0  0  0  0
 62 15  1  1  0  0  0
 15133  1  0  0  0  0
 16 17  1  0  0  0  0
 16 18  1  0  0  0  0
 16 24  1  0  0  0  0
 17 20  1  0  0  0  0
 17 22  1  0  0  0  0
 17 27  1  1  0  0  0
 18 19  1  0  0  0  0
 18 26  1  0  0  0  0
 19 21  1  0  0  0  0
 19 23  1  0  0  0  0
 19 65  1  6  0  0  0
 20 23  1  0  0  0  0
 20 66  1  0  0  0  0
 21 28  1  0  0  0  0
 21 29  1  0  0  0  0
 21 31  1  1  0  0  0
 22 25  1  0  0  0  0
 22 33  1  0  0  0  0
 22 67  1  0  0  0  0
 23 68  1  0  0  0  0
 23 69  1  0  0  0  0
 24 25  1  0  0  0  0
 24 70  1  0  0  0  0
 24 71  1  0  0  0  0
 25 72  1  0  0  0  0
 25 73  1  0  0  0  0
 26 30  1  0  0  0  0
 26 74  1  0  0  0  0
 26 75  1  0  0  0  0
 27 76  1  0  0  0  0
 27 77  1  0  0  0  0
 27 78  1  0  0  0  0
 28 30  2  0  0  0  0
 28 32  1  0  0  0  0
 29 34  1  0  0  0  0
 29 79  1  0  0  0  0
 29 80  1  0  0  0  0
 30 81  1  0  0  0  0
 31 83  1  0  0  0  0
 31 84  1  0  0  0  0
 31 85  1  0  0  0  0
 32 35  1  0  0  0  0
 32 87  1  0  0  0  0
 32 88  1  0  0  0  0
 33 36  1  0  0  0  0
 34 35  1  0  0  0  0
 34 89  1  0  0  0  0
 34 90  1  0  0  0  0
 35 91  1  0  0  0  0
 36 92  1  0  0  0  0
 36 93  1  0  0  0  0
 36 94  1  0  0  0  0
 37 39  1  0  0  0  0
 38 40  1  0  0  0  0
 38 95  1  0  0  0  0
 39 42  2  0  0  0  0
 39 43  1  0  0  0  0
 40 41  1  0  0  0  0
 40 96  1  0  0  0  0
 40 97  1  0  0  0  0
 41 45  1  0  0  0  0
 41 98  1  0  0  0  0
 42 46  1  0  0  0  0
 42 99  1  0  0  0  0
 43 47  2  0  0  0  0
 43100  1  0  0  0  0
 44 45  1  0  0  0  0
 44 48  1  6  0  0  0
 44101  1  0  0  0  0
 45102  1  0  0  0  0
 46 49  2  0  0  0  0
 46103  1  0  0  0  0
 47 49  1  0  0  0  0
 47104  1  0  0  0  0
 48105  1  0  0  0  0
 48106  1  0  0  0  0
 48107  1  0  0  0  0
 49108  1  0  0  0  0
 50 52  1  0  0  0  0
 50109  1  0  0  0  0
 51110  1  0  0  0  0
 51111  1  0  0  0  0
 51112  1  0  0  0  0
 52 53  1  0  0  0  0
 52113  1  0  0  0  0
 52114  1  0  0  0  0
 53 55  1  0  0  0  0
 53115  1  0  0  0  0
 54 55  1  0  0  0  0
 54 56  1  1  0  0  0
 54116  1  0  0  0  0
 55117  1  0  0  0  0
 56118  1  0  0  0  0
 56119  1  0  0  0  0
 56120  1  0  0  0  0
 57 58  1  0  0  0  0
 57121  1  0  0  0  0
 58 60  1  0  0  0  0
 58122  1  0  0  0  0
 58123  1  0  0  0  0
 59124  1  0  0  0  0
 59125  1  0  0  0  0
 59126  1  0  0  0  0
 60 62  1  0  0  0  0
 60127  1  0  0  0  0
 61 62  1  0  0  0  0
 61 63  1  6  0  0  0
 61129  1  0  0  0  0
 62128  1  0  0  0  0
 63130  1  0  0  0  0
 63131  1  0  0  0  0
 63132  1  0  0  0  0
 64134  1  0  0  0  0
 64135  1  0  0  0  0
 64136  1  0  0  0  0
M  END
> <PUBCHEM_COMPOUND_CID>
101634857

> <PUBCHEM_COMPOUND_CANONICALIZED>
1

> <PUBCHEM_CACTVS_COMPLEXITY>
1690

> <PUBCHEM_CACTVS_HBOND_ACCEPTOR>
15

> <PUBCHEM_CACTVS_HBOND_DONOR>
3

> <PUBCHEM_CACTVS_ROTATABLE_BOND>
13

> <PUBCHEM_CACTVS_SUBSKEYS>
AAADcfB8PAAAAAAAAAAAAAAAAAAAAYAAAAA0aNECAAAAAGCBAAAAGgAACAAAD1SwmAMyCIAABgCIAqDSCAACAAAkAAAIiAEACMgZNjKANRiicQAlwAEPqYfK7PzPgAAAAAAAAADCAAYQADCAAYAADAAAAA==

> <PUBCHEM_IUPAC_OPENEYE_NAME>
[(3S,8S,9R,10R,12R,13S,14R)-17-acetyl-8,14-dihydroxy-3-[(2R,4S,5R,6R)-5-[(2S,4S,5R,6R)-5-[(2S,4S,5R,6R)-5-hydroxy-4-methoxy-6-methyl-tetrahydropyran-2-yl]oxy-4-methoxy-6-methyl-tetrahydropyran-2-yl]oxy-4-methoxy-6-methyl-tetrahydropyran-2-yl]oxy-10,13-dimethyl-2,3,4,7,9,11,12,15,16,17-decahydro-1H-cyclopenta[a]phenanthren-12-yl] benzoate

> <PUBCHEM_IUPAC_CAS_NAME>
benzoic acid [(3S,8S,9R,10R,12R,13S,14R)-17-acetyl-8,14-dihydroxy-3-[[(2R,4S,5R,6R)-5-[[(2S,4S,5R,6R)-5-[[(2S,4S,5R,6R)-5-hydroxy-4-methoxy-6-methyl-2-oxanyl]oxy]-4-methoxy-6-methyl-2-oxanyl]oxy]-4-methoxy-6-methyl-2-oxanyl]oxy]-10,13-dimethyl-2,3,4,7,9,11,12,15,16,17-decahydro-1H-cyclopenta[a]phenanthren-12-yl] ester

> <PUBCHEM_IUPAC_NAME_MARKUP>
[(3<I>S</I>,8<I>S</I>,9<I>R</I>,10<I>R</I>,12<I>R</I>,13<I>S</I>,14<I>R</I>)-17-acetyl-8,14-dihydroxy-3-[(2<I>R</I>,4<I>S</I>,5<I>R</I>,6<I>R</I>)-5-[(2<I>S</I>,4<I>S</I>,5<I>R</I>,6<I>R</I>)-5-[(2<I>S</I>,4<I>S</I>,5<I>R</I>,6<I>R</I>)-5-hydroxy-4-methoxy-6-methyloxan-2-yl]oxy-4-methoxy-6-methyloxan-2-yl]oxy-4-methoxy-6-methyloxan-2-yl]oxy-10,13-dimethyl-2,3,4,7,9,11,12,15,16,17-decahydro-1<I>H</I>-cyclopenta[a]phenanthren-12-yl] benzoate

> <PUBCHEM_IUPAC_NAME>
[(3S,8S,9R,10R,12R,13S,14R)-17-acetyl-8,14-dihydroxy-3-[(2R,4S,5R,6R)-5-[(2S,4S,5R,6R)-5-[(2S,4S,5R,6R)-5-hydroxy-4-methoxy-6-methyloxan-2-yl]oxy-4-methoxy-6-methyloxan-2-yl]oxy-4-methoxy-6-methyloxan-2-yl]oxy-10,13-dimethyl-2,3,4,7,9,11,12,15,16,17-decahydro-1H-cyclopenta[a]phenanthren-12-yl] benzoate

> <PUBCHEM_IUPAC_SYSTEMATIC_NAME>
[(3S,8S,9R,10R,12R,13S,14R)-17-ethanoyl-3-[(2R,4S,5R,6R)-4-methoxy-5-[(2S,4S,5R,6R)-4-methoxy-5-[(2S,4S,5R,6R)-4-methoxy-6-methyl-5-oxidanyl-oxan-2-yl]oxy-6-methyl-oxan-2-yl]oxy-6-methyl-oxan-2-yl]oxy-10,13-dimethyl-8,14-bis(oxidanyl)-2,3,4,7,9,11,12,15,16,17-decahydro-1H-cyclopenta[a]phenanthren-12-yl] benzoate

> <PUBCHEM_IUPAC_TRADITIONAL_NAME>
benzoic acid [(3S,8S,9R,10R,12R,13S,14R)-17-acetyl-8,14-dihydroxy-3-[(2R,4S,5R,6R)-5-[(2S,4S,5R,6R)-5-[(2S,4S,5R,6R)-5-hydroxy-4-methoxy-6-methyl-tetrahydropyran-2-yl]oxy-4-methoxy-6-methyl-tetrahydropyran-2-yl]oxy-4-methoxy-6-methyl-tetrahydropyran-2-yl]oxy-10,13-dimethyl-2,3,4,7,9,11,12,15,16,17-decahydro-1H-cyclopenta[a]phenanthren-12-yl] ester

> <PUBCHEM_IUPAC_INCHI>
InChI=1S/C49H72O15/c1-26(50)33-17-20-49(54)47(33,6)38(62-45(52)30-13-11-10-12-14-30)25-37-46(5)18-16-32(21-31(46)15-19-48(37,49)53)61-39-23-35(56-8)43(28(3)59-39)64-41-24-36(57-9)44(29(4)60-41)63-40-22-34(55-7)42(51)27(2)58-40/h10-15,27-29,32-44,51,53-54H,16-25H2,1-9H3/t27-,28-,29-,32+,33?,34+,35+,36+,37-,38-,39+,40+,41+,42-,43-,44-,46+,47+,48+,49-/m1/s1

> <PUBCHEM_IUPAC_INCHIKEY>
NOSAHRWCQMENMW-QCZVQURFSA-N

> <PUBCHEM_XLOGP3_AA>
3.9

> <PUBCHEM_EXACT_MASS>
900.487122

> <PUBCHEM_MOLECULAR_FORMULA>
C49H72O15

> <PUBCHEM_MOLECULAR_WEIGHT>
901.1

> <PUBCHEM_OPENEYE_CAN_SMILES>
CC1C(C(CC(O1)OC2C(OC(CC2OC)OC3C(OC(CC3OC)OC4CCC5(C6CC(C7(C(CCC7(C6(CC=C5C4)O)O)C(=O)C)C)OC(=O)C8=CC=CC=C8)C)C)C)OC)O

> <PUBCHEM_OPENEYE_ISO_SMILES>
C[C@@H]1[C@H]([C@H](C[C@@H](O1)O[C@@H]2[C@H](O[C@H](C[C@@H]2OC)O[C@@H]3[C@H](O[C@H](C[C@@H]3OC)O[C@H]4CC[C@@]5([C@H]6C[C@H]([C@@]7(C(CC[C@@]7([C@@]6(CC=C5C4)O)O)C(=O)C)C)OC(=O)C8=CC=CC=C8)C)C)C)OC)O

> <PUBCHEM_CACTVS_TPSA>
187

> <PUBCHEM_MONOISOTOPIC_WEIGHT>
900.487122

> <PUBCHEM_TOTAL_CHARGE>
0

> <PUBCHEM_HEAVY_ATOM_COUNT>
64

> <PUBCHEM_ATOM_DEF_STEREO_COUNT>
19

> <PUBCHEM_ATOM_UDEF_STEREO_COUNT>
1

> <PUBCHEM_BOND_DEF_STEREO_COUNT>
0

> <PUBCHEM_BOND_UDEF_STEREO_COUNT>
0

> <PUBCHEM_ISOTOPIC_ATOM_COUNT>
0

> <PUBCHEM_COMPONENT_COUNT>
1

> <PUBCHEM_CACTVS_TAUTO_COUNT>
-1

> <PUBCHEM_COORDINATE_TYPE>
1
5
255

> <PUBCHEM_BONDANNOTATIONS>
16  1  5
53  11  6
55  12  6
57  12  6
60  14  5
62  15  5
17  27  5
19  65  6
18  2  5
21  31  5
22  33  3
20  3  5
39  42  8
39  43  8
35  4  5
38  4  6
42  46  8
43  47  8
44  48  6
46  49  8
47  49  8
54  56  5
61  63  6
41  8  5
45  9  5
50  9  5

$$$$
