3083420
  -OEChem-11212002002D

180189  0     1  0  0  0  0  0999 V2000
   25.5882    2.1485    0.0000 O   0  0  0  0  0  0  0  0  0  0  0  0
   25.0242    2.4770    0.0000 O   0  0  0  0  0  0  0  0  0  0  0  0
   24.3669   -1.2866    0.0000 O   0  0  0  0  0  0  0  0  0  0  0  0
   19.8574    3.2832    0.0000 O   0  0  0  0  0  0  0  0  0  0  0  0
   25.8200   -1.7917    0.0000 O   0  0  0  0  0  0  0  0  0  0  0  0
   22.6349   -1.2799    0.0000 O   0  0  0  0  0  0  0  0  0  0  0  0
   18.1254    3.2832    0.0000 O   0  0  0  0  0  0  0  0  0  0  0  0
   18.1254    0.2832    0.0000 O   0  0  0  0  0  0  0  0  0  0  0  0
   16.3933    1.2832    0.0000 O   0  0  0  0  0  0  0  0  0  0  0  0
   15.5273    2.7832    0.0000 O   0  0  0  0  0  0  0  0  0  0  0  0
   12.9292    1.2832    0.0000 O   0  0  0  0  0  0  0  0  0  0  0  0
   12.9292    3.2832    0.0000 O   0  0  0  0  0  0  0  0  0  0  0  0
   11.1972    3.2832    0.0000 O   0  0  0  0  0  0  0  0  0  0  0  0
    9.4651    1.2832    0.0000 O   0  0  0  0  0  0  0  0  0  0  0  0
   11.1972    0.2832    0.0000 O   0  0  0  0  0  0  0  0  0  0  0  0
    7.7331    1.2832    0.0000 O   0  0  0  0  0  0  0  0  0  0  0  0
    6.0010    3.2832    0.0000 O   0  0  0  0  0  0  0  0  0  0  0  0
    7.7331    4.2832    0.0000 O   0  0  0  0  0  0  0  0  0  0  0  0
    5.1350    1.7832    0.0000 O   0  0  0  0  0  0  0  0  0  0  0  0
    2.5369    3.2832    0.0000 O   0  0  0  0  0  0  0  0  0  0  0  0
    2.5369    1.2832    0.0000 O   0  0  0  0  0  0  0  0  0  0  0  0
   25.2426    1.2101    0.0000 C   0  0  3  0  0  0  0  0  0  0  0  0
   25.2387    0.2101    0.0000 C   0  0  3  0  0  0  0  0  0  0  0  0
   24.3785    1.7134    0.0000 C   0  0  3  0  0  0  0  0  0  0  0  0
   23.5105    1.2168    0.0000 C   0  0  3  0  0  0  0  0  0  0  0  0
   24.3708   -0.2866    0.0000 C   0  0  3  0  0  0  0  0  0  0  0  0
   22.6025    1.7271    0.0000 C   0  0  3  0  0  0  0  0  0  0  0  0
   26.1838   -0.0983    0.0000 C   0  0  3  0  0  0  0  0  0  0  0  0
   23.5067    0.2168    0.0000 C   0  0  0  0  0  0  0  0  0  0  0  0
   26.1900    1.5112    0.0000 C   0  0  0  0  0  0  0  0  0  0  0  0
   26.7705    0.7042    0.0000 C   0  0  0  0  0  0  0  0  0  0  0  0
   24.3986    2.7549    0.0000 C   0  0  0  0  0  0  0  0  0  0  0  0
   25.2349   -0.7899    0.0000 C   0  0  0  0  0  0  0  0  0  0  0  0
   22.5985    2.7687    0.0000 C   0  0  0  0  0  0  0  0  0  0  0  0
   21.6735    1.1666    0.0000 C   0  0  0  0  0  0  0  0  0  0  0  0
   23.5026    3.2861    0.0000 C   0  0  0  0  0  0  0  0  0  0  0  0
   22.6064    0.7271    0.0000 C   0  0  0  0  0  0  0  0  0  0  0  0
   21.6652    3.3221    0.0000 C   0  0  0  0  0  0  0  0  0  0  0  0
   26.4908   -1.0500    0.0000 C   0  0  0  0  0  0  0  0  0  0  0  0
   20.7277    1.6982    0.0000 C   0  0  0  0  0  0  0  0  0  0  0  0
   20.7235    2.7832    0.0000 C   0  0  3  0  0  0  0  0  0  0  0  0
   27.4685   -1.2600    0.0000 C   0  0  0  0  0  0  0  0  0  0  0  0
   23.4990   -1.7832    0.0000 C   0  0  0  0  0  0  0  0  0  0  0  0
   18.9914    2.7832    0.0000 C   0  0  3  0  0  0  0  0  0  0  0  0
   23.4951   -2.7832    0.0000 C   0  0  0  0  0  0  0  0  0  0  0  0
   18.9914    1.7832    0.0000 C   0  0  0  0  0  0  0  0  0  0  0  0
   18.1254    1.2832    0.0000 C   0  0  3  0  0  0  0  0  0  0  0  0
   22.6272   -3.2799    0.0000 C   0  0  0  0  0  0  0  0  0  0  0  0
   24.3592   -3.2865    0.0000 C   0  0  0  0  0  0  0  0  0  0  0  0
   17.2594    2.7832    0.0000 C   0  0  3  0  0  0  0  0  0  0  0  0
   17.2594    1.7832    0.0000 C   0  0  3  0  0  0  0  0  0  0  0  0
   22.6233   -4.2799    0.0000 C   0  0  0  0  0  0  0  0  0  0  0  0
   24.3554   -4.2865    0.0000 C   0  0  0  0  0  0  0  0  0  0  0  0
   16.3933    3.2832    0.0000 C   0  0  0  0  0  0  0  0  0  0  0  0
   23.4874   -4.7832    0.0000 C   0  0  0  0  0  0  0  0  0  0  0  0
   15.5273    1.7832    0.0000 C   0  0  3  0  0  0  0  0  0  0  0  0
   18.9914   -0.2168    0.0000 C   0  0  0  0  0  0  0  0  0  0  0  0
   14.6613    1.2832    0.0000 C   0  0  0  0  0  0  0  0  0  0  0  0
   13.7953    1.7832    0.0000 C   0  0  3  0  0  0  0  0  0  0  0  0
   14.6613    3.2832    0.0000 C   0  0  3  0  0  0  0  0  0  0  0  0
   13.7953    2.7832    0.0000 C   0  0  3  0  0  0  0  0  0  0  0  0
   14.6613    4.2832    0.0000 C   0  0  0  0  0  0  0  0  0  0  0  0
   12.0632    2.7832    0.0000 C   0  0  3  0  0  0  0  0  0  0  0  0
   12.9292    0.2832    0.0000 C   0  0  0  0  0  0  0  0  0  0  0  0
   12.0632    1.7832    0.0000 C   0  0  0  0  0  0  0  0  0  0  0  0
   11.1972    1.2832    0.0000 C   0  0  3  0  0  0  0  0  0  0  0  0
   10.3312    1.7832    0.0000 C   0  0  3  0  0  0  0  0  0  0  0  0
   10.3312    2.7832    0.0000 C   0  0  3  0  0  0  0  0  0  0  0  0
    9.4651    3.2832    0.0000 C   0  0  0  0  0  0  0  0  0  0  0  0
    8.5991    1.7832    0.0000 C   0  0  3  0  0  0  0  0  0  0  0  0
    8.5991    2.7832    0.0000 C   0  0  0  0  0  0  0  0  0  0  0  0
    7.7331    3.2832    0.0000 C   0  0  3  0  0  0  0  0  0  0  0  0
    6.8671    2.7832    0.0000 C   0  0  3  0  0  0  0  0  0  0  0  0
    6.8671    1.7832    0.0000 C   0  0  3  0  0  0  0  0  0  0  0  0
   12.0632   -0.2168    0.0000 C   0  0  0  0  0  0  0  0  0  0  0  0
    5.1350    2.7832    0.0000 C   0  0  3  0  0  0  0  0  0  0  0  0
    6.0010    1.2832    0.0000 C   0  0  0  0  0  0  0  0  0  0  0  0
    4.2690    3.2832    0.0000 C   0  0  0  0  0  0  0  0  0  0  0  0
    3.4030    2.7832    0.0000 C   0  0  3  0  0  0  0  0  0  0  0  0
    3.4030    1.7832    0.0000 C   0  0  3  0  0  0  0  0  0  0  0  0
    4.2690    1.2832    0.0000 C   0  0  3  0  0  0  0  0  0  0  0  0
    6.8671    4.7832    0.0000 C   0  0  0  0  0  0  0  0  0  0  0  0
    4.2690    0.2832    0.0000 C   0  0  0  0  0  0  0  0  0  0  0  0
    2.5369    4.2832    0.0000 C   0  0  0  0  0  0  0  0  0  0  0  0
   24.0463    0.9047    0.0000 H   0  0  0  0  0  0  0  0  0  0  0  0
   23.8327   -0.5945    0.0000 H   0  0  0  0  0  0  0  0  0  0  0  0
   26.7959   -0.1968    0.0000 H   0  0  0  0  0  0  0  0  0  0  0  0
   22.8965    0.3268    0.0000 H   0  0  0  0  0  0  0  0  0  0  0  0
   23.2924   -0.3650    0.0000 H   0  0  0  0  0  0  0  0  0  0  0  0
   26.7285    1.8183    0.0000 H   0  0  0  0  0  0  0  0  0  0  0  0
   25.9411    2.0790    0.0000 H   0  0  0  0  0  0  0  0  0  0  0  0
   27.2297    0.2877    0.0000 H   0  0  0  0  0  0  0  0  0  0  0  0
   27.2329    1.1171    0.0000 H   0  0  0  0  0  0  0  0  0  0  0  0
   25.0073    2.6370    0.0000 H   0  0  0  0  0  0  0  0  0  0  0  0
   24.6188    3.3344    0.0000 H   0  0  0  0  0  0  0  0  0  0  0  0
   24.6149   -0.7875    0.0000 H   0  0  0  0  0  0  0  0  0  0  0  0
   25.2325   -1.4099    0.0000 H   0  0  0  0  0  0  0  0  0  0  0  0
   25.8549   -0.7923    0.0000 H   0  0  0  0  0  0  0  0  0  0  0  0
   21.2817    0.6861    0.0000 H   0  0  0  0  0  0  0  0  0  0  0  0
   22.0799    0.6984    0.0000 H   0  0  0  0  0  0  0  0  0  0  0  0
   23.5073    3.9060    0.0000 H   0  0  0  0  0  0  0  0  0  0  0  0
   26.1992    2.2538    0.0000 H   0  0  0  0  0  0  0  0  0  0  0  0
   21.9864    0.7247    0.0000 H   0  0  0  0  0  0  0  0  0  0  0  0
   22.6087    0.1071    0.0000 H   0  0  0  0  0  0  0  0  0  0  0  0
   23.2263    0.7295    0.0000 H   0  0  0  0  0  0  0  0  0  0  0  0
   25.1342    3.0871    0.0000 H   0  0  0  0  0  0  0  0  0  0  0  0
   22.0680    3.7934    0.0000 H   0  0  0  0  0  0  0  0  0  0  0  0
   21.2697    3.7996    0.0000 H   0  0  0  0  0  0  0  0  0  0  0  0
   20.1164    1.8019    0.0000 H   0  0  0  0  0  0  0  0  0  0  0  0
   20.5208    1.1137    0.0000 H   0  0  0  0  0  0  0  0  0  0  0  0
   20.1871    2.4722    0.0000 H   0  0  0  0  0  0  0  0  0  0  0  0
   27.3383   -1.8662    0.0000 H   0  0  0  0  0  0  0  0  0  0  0  0
   28.0746   -1.3902    0.0000 H   0  0  0  0  0  0  0  0  0  0  0  0
   27.5987   -0.6538    0.0000 H   0  0  0  0  0  0  0  0  0  0  0  0
   18.9914    3.4032    0.0000 H   0  0  0  0  0  0  0  0  0  0  0  0
   19.2035    1.2006    0.0000 H   0  0  0  0  0  0  0  0  0  0  0  0
   19.6020    1.8908    0.0000 H   0  0  0  0  0  0  0  0  0  0  0  0
   18.6623    0.9732    0.0000 H   0  0  0  0  0  0  0  0  0  0  0  0
   22.0914   -2.9678    0.0000 H   0  0  0  0  0  0  0  0  0  0  0  0
   24.8973   -2.9786    0.0000 H   0  0  0  0  0  0  0  0  0  0  0  0
   17.2594    3.4032    0.0000 H   0  0  0  0  0  0  0  0  0  0  0  0
   16.7224    2.0932    0.0000 H   0  0  0  0  0  0  0  0  0  0  0  0
   22.0852   -4.5878    0.0000 H   0  0  0  0  0  0  0  0  0  0  0  0
   24.8911   -4.5986    0.0000 H   0  0  0  0  0  0  0  0  0  0  0  0
   16.7033    3.8201    0.0000 H   0  0  0  0  0  0  0  0  0  0  0  0
   15.8564    3.5932    0.0000 H   0  0  0  0  0  0  0  0  0  0  0  0
   16.0833    2.7463    0.0000 H   0  0  0  0  0  0  0  0  0  0  0  0
   23.4850   -5.4032    0.0000 H   0  0  0  0  0  0  0  0  0  0  0  0
   15.5273    1.1632    0.0000 H   0  0  0  0  0  0  0  0  0  0  0  0
   18.6814   -0.7537    0.0000 H   0  0  0  0  0  0  0  0  0  0  0  0
   19.5284   -0.5268    0.0000 H   0  0  0  0  0  0  0  0  0  0  0  0
   19.3014    0.3201    0.0000 H   0  0  0  0  0  0  0  0  0  0  0  0
   14.2628    0.8082    0.0000 H   0  0  0  0  0  0  0  0  0  0  0  0
   15.0598    0.8082    0.0000 H   0  0  0  0  0  0  0  0  0  0  0  0
   13.2583    2.0932    0.0000 H   0  0  0  0  0  0  0  0  0  0  0  0
   15.1982    3.5932    0.0000 H   0  0  0  0  0  0  0  0  0  0  0  0
   13.7953    3.4032    0.0000 H   0  0  0  0  0  0  0  0  0  0  0  0
   15.2813    4.2832    0.0000 H   0  0  0  0  0  0  0  0  0  0  0  0
   14.6613    4.9032    0.0000 H   0  0  0  0  0  0  0  0  0  0  0  0
   14.0413    4.2832    0.0000 H   0  0  0  0  0  0  0  0  0  0  0  0
   12.6002    2.4732    0.0000 H   0  0  0  0  0  0  0  0  0  0  0  0
   12.3092    0.2832    0.0000 H   0  0  0  0  0  0  0  0  0  0  0  0
   12.9292   -0.3368    0.0000 H   0  0  0  0  0  0  0  0  0  0  0  0
   13.5492    0.2832    0.0000 H   0  0  0  0  0  0  0  0  0  0  0  0
   12.2753    1.2006    0.0000 H   0  0  0  0  0  0  0  0  0  0  0  0
   12.6738    1.8908    0.0000 H   0  0  0  0  0  0  0  0  0  0  0  0
   11.7341    0.9732    0.0000 H   0  0  0  0  0  0  0  0  0  0  0  0
    9.7942    2.0932    0.0000 H   0  0  0  0  0  0  0  0  0  0  0  0
   10.3312    3.4032    0.0000 H   0  0  0  0  0  0  0  0  0  0  0  0
    9.7751    3.8201    0.0000 H   0  0  0  0  0  0  0  0  0  0  0  0
    8.9282    3.5932    0.0000 H   0  0  0  0  0  0  0  0  0  0  0  0
    9.1551    2.7463    0.0000 H   0  0  0  0  0  0  0  0  0  0  0  0
    8.5991    1.1632    0.0000 H   0  0  0  0  0  0  0  0  0  0  0  0
    9.2097    2.6755    0.0000 H   0  0  0  0  0  0  0  0  0  0  0  0
    8.8112    3.3658    0.0000 H   0  0  0  0  0  0  0  0  0  0  0  0
    8.2700    3.5932    0.0000 H   0  0  0  0  0  0  0  0  0  0  0  0
    6.8671    3.4032    0.0000 H   0  0  0  0  0  0  0  0  0  0  0  0
    6.8671    1.1632    0.0000 H   0  0  0  0  0  0  0  0  0  0  0  0
   11.7532   -0.7537    0.0000 H   0  0  0  0  0  0  0  0  0  0  0  0
   12.6002   -0.5268    0.0000 H   0  0  0  0  0  0  0  0  0  0  0  0
   12.3732    0.3201    0.0000 H   0  0  0  0  0  0  0  0  0  0  0  0
    5.1350    3.4032    0.0000 H   0  0  0  0  0  0  0  0  0  0  0  0
    5.6910    1.8201    0.0000 H   0  0  0  0  0  0  0  0  0  0  0  0
    5.4641    0.9732    0.0000 H   0  0  0  0  0  0  0  0  0  0  0  0
    6.3110    0.7463    0.0000 H   0  0  0  0  0  0  0  0  0  0  0  0
    4.6675    3.7581    0.0000 H   0  0  0  0  0  0  0  0  0  0  0  0
    3.8705    3.7581    0.0000 H   0  0  0  0  0  0  0  0  0  0  0  0
    3.4030    3.4032    0.0000 H   0  0  0  0  0  0  0  0  0  0  0  0
    3.4030    1.1632    0.0000 H   0  0  0  0  0  0  0  0  0  0  0  0
    4.8059    0.9732    0.0000 H   0  0  0  0  0  0  0  0  0  0  0  0
    7.1771    5.3201    0.0000 H   0  0  0  0  0  0  0  0  0  0  0  0
    6.3301    5.0932    0.0000 H   0  0  0  0  0  0  0  0  0  0  0  0
    6.5571    4.2463    0.0000 H   0  0  0  0  0  0  0  0  0  0  0  0
    3.6490    0.2832    0.0000 H   0  0  0  0  0  0  0  0  0  0  0  0
    4.2690   -0.3368    0.0000 H   0  0  0  0  0  0  0  0  0  0  0  0
    4.8890    0.2832    0.0000 H   0  0  0  0  0  0  0  0  0  0  0  0
    2.0000    1.5932    0.0000 H   0  0  0  0  0  0  0  0  0  0  0  0
    3.1569    4.2832    0.0000 H   0  0  0  0  0  0  0  0  0  0  0  0
    2.5369    4.9032    0.0000 H   0  0  0  0  0  0  0  0  0  0  0  0
    1.9169    4.2832    0.0000 H   0  0  0  0  0  0  0  0  0  0  0  0
  1 22  1  0  0  0  0
  1102  1  0  0  0  0
  2 24  1  0  0  0  0
  2106  1  0  0  0  0
  3 26  1  0  0  0  0
  3 43  1  0  0  0  0
  4 41  1  0  0  0  0
  4 44  1  0  0  0  0
  5 39  2  0  0  0  0
  6 43  2  0  0  0  0
  7 44  1  0  0  0  0
  7 50  1  0  0  0  0
  8 47  1  0  0  0  0
  8 57  1  0  0  0  0
  9 51  1  0  0  0  0
  9 56  1  0  0  0  0
 10 56  1  0  0  0  0
 10 60  1  0  0  0  0
 11 59  1  0  0  0  0
 11 64  1  0  0  0  0
 12 61  1  0  0  0  0
 12 63  1  0  0  0  0
 13 63  1  0  0  0  0
 13 68  1  0  0  0  0
 14 67  1  0  0  0  0
 14 70  1  0  0  0  0
 15 66  1  0  0  0  0
 15 75  1  0  0  0  0
 16 70  1  0  0  0  0
 16 74  1  0  0  0  0
 17 73  1  0  0  0  0
 17 76  1  0  0  0  0
 18 72  1  0  0  0  0
 18 82  1  0  0  0  0
 19 76  1  0  0  0  0
 19 81  1  0  0  0  0
 20 79  1  0  0  0  0
 20 84  1  0  0  0  0
 21 80  1  0  0  0  0
 21177  1  0  0  0  0
 22 23  1  0  0  0  0
 22 24  1  0  0  0  0
 22 30  1  0  0  0  0
 23 26  1  0  0  0  0
 23 28  1  0  0  0  0
 23 33  1  0  0  0  0
 24 25  1  0  0  0  0
 24 32  1  0  0  0  0
 25 27  1  0  0  0  0
 25 29  1  0  0  0  0
 25 85  1  0  0  0  0
 26 29  1  0  0  0  0
 26 86  1  0  0  0  0
 27 34  1  0  0  0  0
 27 35  1  0  0  0  0
 27 37  1  0  0  0  0
 28 31  1  0  0  0  0
 28 39  1  0  0  0  0
 28 87  1  0  0  0  0
 29 88  1  0  0  0  0
 29 89  1  0  0  0  0
 30 31  1  0  0  0  0
 30 90  1  0  0  0  0
 30 91  1  0  0  0  0
 31 92  1  0  0  0  0
 31 93  1  0  0  0  0
 32 36  1  0  0  0  0
 32 94  1  0  0  0  0
 32 95  1  0  0  0  0
 33 96  1  0  0  0  0
 33 97  1  0  0  0  0
 33 98  1  0  0  0  0
 34 36  2  0  0  0  0
 34 38  1  0  0  0  0
 35 40  1  0  0  0  0
 35 99  1  0  0  0  0
 35100  1  0  0  0  0
 36101  1  0  0  0  0
 37103  1  0  0  0  0
 37104  1  0  0  0  0
 37105  1  0  0  0  0
 38 41  1  0  0  0  0
 38107  1  0  0  0  0
 38108  1  0  0  0  0
 39 42  1  0  0  0  0
 40 41  1  0  0  0  0
 40109  1  0  0  0  0
 40110  1  0  0  0  0
 41111  1  0  0  0  0
 42112  1  0  0  0  0
 42113  1  0  0  0  0
 42114  1  0  0  0  0
 43 45  1  0  0  0  0
 44 46  1  0  0  0  0
 44115  1  0  0  0  0
 45 48  2  0  0  0  0
 45 49  1  0  0  0  0
 46 47  1  0  0  0  0
 46116  1  0  0  0  0
 46117  1  0  0  0  0
 47 51  1  0  0  0  0
 47118  1  0  0  0  0
 48 52  1  0  0  0  0
 48119  1  0  0  0  0
 49 53  2  0  0  0  0
 49120  1  0  0  0  0
 50 51  1  0  0  0  0
 50 54  1  0  0  0  0
 50121  1  0  0  0  0
 51122  1  0  0  0  0
 52 55  2  0  0  0  0
 52123  1  0  0  0  0
 53 55  1  0  0  0  0
 53124  1  0  0  0  0
 54125  1  0  0  0  0
 54126  1  0  0  0  0
 54127  1  0  0  0  0
 55128  1  0  0  0  0
 56 58  1  0  0  0  0
 56129  1  0  0  0  0
 57130  1  0  0  0  0
 57131  1  0  0  0  0
 57132  1  0  0  0  0
 58 59  1  0  0  0  0
 58133  1  0  0  0  0
 58134  1  0  0  0  0
 59 61  1  0  0  0  0
 59135  1  0  0  0  0
 60 61  1  0  0  0  0
 60 62  1  0  0  0  0
 60136  1  0  0  0  0
 61137  1  0  0  0  0
 62138  1  0  0  0  0
 62139  1  0  0  0  0
 62140  1  0  0  0  0
 63 65  1  0  0  0  0
 63141  1  0  0  0  0
 64142  1  0  0  0  0
 64143  1  0  0  0  0
 64144  1  0  0  0  0
 65 66  1  0  0  0  0
 65145  1  0  0  0  0
 65146  1  0  0  0  0
 66 67  1  0  0  0  0
 66147  1  0  0  0  0
 67 68  1  0  0  0  0
 67148  1  0  0  0  0
 68 69  1  0  0  0  0
 68149  1  0  0  0  0
 69150  1  0  0  0  0
 69151  1  0  0  0  0
 69152  1  0  0  0  0
 70 71  1  0  0  0  0
 70153  1  0  0  0  0
 71 72  1  0  0  0  0
 71154  1  0  0  0  0
 71155  1  0  0  0  0
 72 73  1  0  0  0  0
 72156  1  0  0  0  0
 73 74  1  0  0  0  0
 73157  1  0  0  0  0
 74 77  1  0  0  0  0
 74158  1  0  0  0  0
 75159  1  0  0  0  0
 75160  1  0  0  0  0
 75161  1  0  0  0  0
 76 78  1  0  0  0  0
 76162  1  0  0  0  0
 77163  1  0  0  0  0
 77164  1  0  0  0  0
 77165  1  0  0  0  0
 78 79  1  0  0  0  0
 78166  1  0  0  0  0
 78167  1  0  0  0  0
 79 80  1  0  0  0  0
 79168  1  0  0  0  0
 80 81  1  0  0  0  0
 80169  1  0  0  0  0
 81 83  1  0  0  0  0
 81170  1  0  0  0  0
 82171  1  0  0  0  0
 82172  1  0  0  0  0
 82173  1  0  0  0  0
 83174  1  0  0  0  0
 83175  1  0  0  0  0
 83176  1  0  0  0  0
 84178  1  0  0  0  0
 84179  1  0  0  0  0
 84180  1  0  0  0  0
M  END
> <PUBCHEM_COMPOUND_CID>
3083420

> <PUBCHEM_COMPOUND_CANONICALIZED>
1

> <PUBCHEM_CACTVS_COMPLEXITY>
2250

> <PUBCHEM_CACTVS_HBOND_ACCEPTOR>
21

> <PUBCHEM_CACTVS_HBOND_DONOR>
3

> <PUBCHEM_CACTVS_ROTATABLE_BOND>
19

> <PUBCHEM_CACTVS_SUBSKEYS>
AAADcfB8PgAAAAAAAAAAAAAAAAAAAYAAAAA0aNEiQAAAAGCBAAAAGgAACAAAD1SwmAMyCIAABgCIAqDSCAACAAAkAAAIiAEACMgZNjKANRiicQAlwAEPqYfK7PzPgAAAAAAAAADCAAYQADCAAYAADAAAAA==

> <PUBCHEM_IUPAC_OPENEYE_NAME>
[17-acetyl-8,14-dihydroxy-3-[5-[5-[5-[5-(5-hydroxy-4-methoxy-6-methyl-tetrahydropyran-2-yl)oxy-4-methoxy-6-methyl-tetrahydropyran-2-yl]oxy-4-methoxy-6-methyl-tetrahydropyran-2-yl]oxy-4-methoxy-6-methyl-tetrahydropyran-2-yl]oxy-4-methoxy-6-methyl-tetrahydropyran-2-yl]oxy-10,13-dimethyl-2,3,4,7,9,11,12,15,16,17-decahydro-1H-cyclopenta[a]phenanthren-12-yl] benzoate

> <PUBCHEM_IUPAC_CAS_NAME>
benzoic acid [17-acetyl-8,14-dihydroxy-3-[[5-[[5-[[5-[[5-[(5-hydroxy-4-methoxy-6-methyl-2-oxanyl)oxy]-4-methoxy-6-methyl-2-oxanyl]oxy]-4-methoxy-6-methyl-2-oxanyl]oxy]-4-methoxy-6-methyl-2-oxanyl]oxy]-4-methoxy-6-methyl-2-oxanyl]oxy]-10,13-dimethyl-2,3,4,7,9,11,12,15,16,17-decahydro-1H-cyclopenta[a]phenanthren-12-yl] ester

> <PUBCHEM_IUPAC_NAME_MARKUP>
[17-acetyl-8,14-dihydroxy-3-[5-[5-[5-[5-(5-hydroxy-4-methoxy-6-methyloxan-2-yl)oxy-4-methoxy-6-methyloxan-2-yl]oxy-4-methoxy-6-methyloxan-2-yl]oxy-4-methoxy-6-methyloxan-2-yl]oxy-4-methoxy-6-methyloxan-2-yl]oxy-10,13-dimethyl-2,3,4,7,9,11,12,15,16,17-decahydro-1<I>H</I>-cyclopenta[a]phenanthren-12-yl] benzoate

> <PUBCHEM_IUPAC_NAME>
[17-acetyl-8,14-dihydroxy-3-[5-[5-[5-[5-(5-hydroxy-4-methoxy-6-methyloxan-2-yl)oxy-4-methoxy-6-methyloxan-2-yl]oxy-4-methoxy-6-methyloxan-2-yl]oxy-4-methoxy-6-methyloxan-2-yl]oxy-4-methoxy-6-methyloxan-2-yl]oxy-10,13-dimethyl-2,3,4,7,9,11,12,15,16,17-decahydro-1H-cyclopenta[a]phenanthren-12-yl] benzoate

> <PUBCHEM_IUPAC_SYSTEMATIC_NAME>
[17-ethanoyl-3-[4-methoxy-5-[4-methoxy-5-[4-methoxy-5-[4-methoxy-5-(4-methoxy-6-methyl-5-oxidanyl-oxan-2-yl)oxy-6-methyl-oxan-2-yl]oxy-6-methyl-oxan-2-yl]oxy-6-methyl-oxan-2-yl]oxy-6-methyl-oxan-2-yl]oxy-10,13-dimethyl-8,14-bis(oxidanyl)-2,3,4,7,9,11,12,15,16,17-decahydro-1H-cyclopenta[a]phenanthren-12-yl] benzoate

> <PUBCHEM_IUPAC_TRADITIONAL_NAME>
benzoic acid [17-acetyl-8,14-dihydroxy-3-[5-[5-[5-[5-(5-hydroxy-4-methoxy-6-methyl-tetrahydropyran-2-yl)oxy-4-methoxy-6-methyl-tetrahydropyran-2-yl]oxy-4-methoxy-6-methyl-tetrahydropyran-2-yl]oxy-4-methoxy-6-methyl-tetrahydropyran-2-yl]oxy-4-methoxy-6-methyl-tetrahydropyran-2-yl]oxy-10,13-dimethyl-2,3,4,7,9,11,12,15,16,17-decahydro-1H-cyclopenta[a]phenanthren-12-yl] ester

> <PUBCHEM_IUPAC_INCHI>
InChI=1S/C63H96O21/c1-32(64)41-21-24-63(68)61(41,8)48(80-59(66)38-17-15-14-16-18-38)31-47-60(7)22-20-40(25-39(60)19-23-62(47,63)67)79-49-27-43(70-10)55(34(3)75-49)82-51-29-45(72-12)57(36(5)77-51)84-53-30-46(73-13)58(37(6)78-53)83-52-28-44(71-11)56(35(4)76-52)81-50-26-42(69-9)54(65)33(2)74-50/h14-19,33-37,40-58,65,67-68H,20-31H2,1-13H3

> <PUBCHEM_IUPAC_INCHIKEY>
FURJPEDAWWWECD-UHFFFAOYSA-N

> <PUBCHEM_XLOGP3_AA>
4.7

> <PUBCHEM_EXACT_MASS>
1188.64441

> <PUBCHEM_MOLECULAR_FORMULA>
C63H96O21

> <PUBCHEM_MOLECULAR_WEIGHT>
1189.4

> <PUBCHEM_OPENEYE_CAN_SMILES>
CC1C(C(CC(O1)OC2C(OC(CC2OC)OC3C(OC(CC3OC)OC4C(OC(CC4OC)OC5C(OC(CC5OC)OC6CCC7(C8CC(C9(C(CCC9(C8(CC=C7C6)O)O)C(=O)C)C)OC(=O)C1=CC=CC=C1)C)C)C)C)C)OC)O

> <PUBCHEM_OPENEYE_ISO_SMILES>
CC1C(C(CC(O1)OC2C(OC(CC2OC)OC3C(OC(CC3OC)OC4C(OC(CC4OC)OC5C(OC(CC5OC)OC6CCC7(C8CC(C9(C(CCC9(C8(CC=C7C6)O)O)C(=O)C)C)OC(=O)C1=CC=CC=C1)C)C)C)C)C)OC)O

> <PUBCHEM_CACTVS_TPSA>
243

> <PUBCHEM_MONOISOTOPIC_WEIGHT>
1188.64441

> <PUBCHEM_TOTAL_CHARGE>
0

> <PUBCHEM_HEAVY_ATOM_COUNT>
84

> <PUBCHEM_ATOM_DEF_STEREO_COUNT>
0

> <PUBCHEM_ATOM_UDEF_STEREO_COUNT>
28

> <PUBCHEM_BOND_DEF_STEREO_COUNT>
0

> <PUBCHEM_BOND_UDEF_STEREO_COUNT>
0

> <PUBCHEM_ISOTOPIC_ATOM_COUNT>
0

> <PUBCHEM_COMPONENT_COUNT>
1

> <PUBCHEM_CACTVS_TAUTO_COUNT>
-1

> <PUBCHEM_COORDINATE_TYPE>
1
5
255

> <PUBCHEM_BONDANNOTATIONS>
22  1  3
59  11  3
61  12  3
63  12  3
67  14  3
70  14  3
66  15  3
73  17  3
76  17  3
72  18  3
24  2  3
79  20  3
80  21  3
23  33  3
25  29  3
27  37  3
28  39  3
26  3  3
41  4  3
44  4  3
45  48  8
45  49  8
48  52  8
49  53  8
50  54  3
52  55  8
53  55  8
60  62  3
68  69  3
74  77  3
47  8  3
81  83  3
51  9  3
56  9  3

$$$$
