3083421
  -OEChem-11212002002D

181190  0     1  0  0  0  0  0999 V2000
   25.5882    2.1485    0.0000 O   0  0  0  0  0  0  0  0  0  0  0  0
   25.0242    2.4770    0.0000 O   0  0  0  0  0  0  0  0  0  0  0  0
   24.3669   -1.2866    0.0000 O   0  0  0  0  0  0  0  0  0  0  0  0
   25.8727   -1.0487    0.0000 O   0  0  0  0  0  0  0  0  0  0  0  0
   19.8574    3.2832    0.0000 O   0  0  0  0  0  0  0  0  0  0  0  0
   26.8849   -1.6821    0.0000 O   0  0  0  0  0  0  0  0  0  0  0  0
   22.6349   -1.2799    0.0000 O   0  0  0  0  0  0  0  0  0  0  0  0
   18.1254    3.2832    0.0000 O   0  0  0  0  0  0  0  0  0  0  0  0
   18.1254    0.2832    0.0000 O   0  0  0  0  0  0  0  0  0  0  0  0
   16.3933    1.2832    0.0000 O   0  0  0  0  0  0  0  0  0  0  0  0
   15.5273    2.7832    0.0000 O   0  0  0  0  0  0  0  0  0  0  0  0
   12.9292    1.2832    0.0000 O   0  0  0  0  0  0  0  0  0  0  0  0
   12.9292    3.2832    0.0000 O   0  0  0  0  0  0  0  0  0  0  0  0
   11.1972    3.2832    0.0000 O   0  0  0  0  0  0  0  0  0  0  0  0
    9.4651    1.2832    0.0000 O   0  0  0  0  0  0  0  0  0  0  0  0
   11.1972    0.2832    0.0000 O   0  0  0  0  0  0  0  0  0  0  0  0
    7.7331    1.2832    0.0000 O   0  0  0  0  0  0  0  0  0  0  0  0
    6.0010    3.2832    0.0000 O   0  0  0  0  0  0  0  0  0  0  0  0
    7.7331    4.2832    0.0000 O   0  0  0  0  0  0  0  0  0  0  0  0
    5.1350    1.7832    0.0000 O   0  0  0  0  0  0  0  0  0  0  0  0
    2.5369    3.2832    0.0000 O   0  0  0  0  0  0  0  0  0  0  0  0
    2.5369    1.2832    0.0000 O   0  0  0  0  0  0  0  0  0  0  0  0
   25.2426    1.2101    0.0000 C   0  0  3  0  0  0  0  0  0  0  0  0
   25.2387    0.2101    0.0000 C   0  0  3  0  0  0  0  0  0  0  0  0
   24.3785    1.7134    0.0000 C   0  0  3  0  0  0  0  0  0  0  0  0
   23.5105    1.2168    0.0000 C   0  0  3  0  0  0  0  0  0  0  0  0
   24.3708   -0.2866    0.0000 C   0  0  3  0  0  0  0  0  0  0  0  0
   26.1838   -0.0983    0.0000 C   0  0  3  0  0  0  0  0  0  0  0  0
   22.6025    1.7271    0.0000 C   0  0  3  0  0  0  0  0  0  0  0  0
   23.5067    0.2168    0.0000 C   0  0  0  0  0  0  0  0  0  0  0  0
   26.1900    1.5112    0.0000 C   0  0  0  0  0  0  0  0  0  0  0  0
   26.7705    0.7042    0.0000 C   0  0  0  0  0  0  0  0  0  0  0  0
   24.3986    2.7549    0.0000 C   0  0  0  0  0  0  0  0  0  0  0  0
   25.2349   -0.7899    0.0000 C   0  0  0  0  0  0  0  0  0  0  0  0
   22.5985    2.7687    0.0000 C   0  0  0  0  0  0  0  0  0  0  0  0
   21.6735    1.1666    0.0000 C   0  0  0  0  0  0  0  0  0  0  0  0
   23.5026    3.2861    0.0000 C   0  0  0  0  0  0  0  0  0  0  0  0
   22.6064    0.7271    0.0000 C   0  0  0  0  0  0  0  0  0  0  0  0
   26.9915   -0.6878    0.0000 C   0  0  0  0  0  0  0  0  0  0  0  0
   21.6652    3.3221    0.0000 C   0  0  0  0  0  0  0  0  0  0  0  0
   20.7277    1.6982    0.0000 C   0  0  0  0  0  0  0  0  0  0  0  0
   20.7235    2.7832    0.0000 C   0  0  3  0  0  0  0  0  0  0  0  0
   27.9059   -0.2830    0.0000 C   0  0  0  0  0  0  0  0  0  0  0  0
   23.4990   -1.7832    0.0000 C   0  0  0  0  0  0  0  0  0  0  0  0
   18.9914    2.7832    0.0000 C   0  0  3  0  0  0  0  0  0  0  0  0
   23.4951   -2.7832    0.0000 C   0  0  0  0  0  0  0  0  0  0  0  0
   18.9914    1.7832    0.0000 C   0  0  0  0  0  0  0  0  0  0  0  0
   18.1254    1.2832    0.0000 C   0  0  3  0  0  0  0  0  0  0  0  0
   22.6272   -3.2799    0.0000 C   0  0  0  0  0  0  0  0  0  0  0  0
   24.3592   -3.2865    0.0000 C   0  0  0  0  0  0  0  0  0  0  0  0
   17.2594    2.7832    0.0000 C   0  0  3  0  0  0  0  0  0  0  0  0
   17.2594    1.7832    0.0000 C   0  0  3  0  0  0  0  0  0  0  0  0
   22.6233   -4.2799    0.0000 C   0  0  0  0  0  0  0  0  0  0  0  0
   24.3554   -4.2865    0.0000 C   0  0  0  0  0  0  0  0  0  0  0  0
   16.3933    3.2832    0.0000 C   0  0  0  0  0  0  0  0  0  0  0  0
   23.4874   -4.7832    0.0000 C   0  0  0  0  0  0  0  0  0  0  0  0
   15.5273    1.7832    0.0000 C   0  0  3  0  0  0  0  0  0  0  0  0
   18.9914   -0.2168    0.0000 C   0  0  0  0  0  0  0  0  0  0  0  0
   14.6613    1.2832    0.0000 C   0  0  0  0  0  0  0  0  0  0  0  0
   13.7953    1.7832    0.0000 C   0  0  3  0  0  0  0  0  0  0  0  0
   14.6613    3.2832    0.0000 C   0  0  3  0  0  0  0  0  0  0  0  0
   13.7953    2.7832    0.0000 C   0  0  3  0  0  0  0  0  0  0  0  0
   14.6613    4.2832    0.0000 C   0  0  0  0  0  0  0  0  0  0  0  0
   12.0632    2.7832    0.0000 C   0  0  3  0  0  0  0  0  0  0  0  0
   12.9292    0.2832    0.0000 C   0  0  0  0  0  0  0  0  0  0  0  0
   12.0632    1.7832    0.0000 C   0  0  0  0  0  0  0  0  0  0  0  0
   11.1972    1.2832    0.0000 C   0  0  3  0  0  0  0  0  0  0  0  0
   10.3312    1.7832    0.0000 C   0  0  3  0  0  0  0  0  0  0  0  0
   10.3312    2.7832    0.0000 C   0  0  3  0  0  0  0  0  0  0  0  0
    9.4651    3.2832    0.0000 C   0  0  0  0  0  0  0  0  0  0  0  0
    8.5991    1.7832    0.0000 C   0  0  3  0  0  0  0  0  0  0  0  0
    8.5991    2.7832    0.0000 C   0  0  0  0  0  0  0  0  0  0  0  0
    7.7331    3.2832    0.0000 C   0  0  3  0  0  0  0  0  0  0  0  0
    6.8671    2.7832    0.0000 C   0  0  3  0  0  0  0  0  0  0  0  0
    6.8671    1.7832    0.0000 C   0  0  3  0  0  0  0  0  0  0  0  0
   12.0632   -0.2168    0.0000 C   0  0  0  0  0  0  0  0  0  0  0  0
    5.1350    2.7832    0.0000 C   0  0  3  0  0  0  0  0  0  0  0  0
    6.0010    1.2832    0.0000 C   0  0  0  0  0  0  0  0  0  0  0  0
    4.2690    3.2832    0.0000 C   0  0  0  0  0  0  0  0  0  0  0  0
    3.4030    2.7832    0.0000 C   0  0  3  0  0  0  0  0  0  0  0  0
    3.4030    1.7832    0.0000 C   0  0  3  0  0  0  0  0  0  0  0  0
    4.2690    1.2832    0.0000 C   0  0  3  0  0  0  0  0  0  0  0  0
    6.8671    4.7832    0.0000 C   0  0  0  0  0  0  0  0  0  0  0  0
    4.2690    0.2832    0.0000 C   0  0  0  0  0  0  0  0  0  0  0  0
    2.5369    4.2832    0.0000 C   0  0  0  0  0  0  0  0  0  0  0  0
   24.0463    0.9047    0.0000 H   0  0  0  0  0  0  0  0  0  0  0  0
   23.8327   -0.5945    0.0000 H   0  0  0  0  0  0  0  0  0  0  0  0
   22.8965    0.3268    0.0000 H   0  0  0  0  0  0  0  0  0  0  0  0
   23.2924   -0.3650    0.0000 H   0  0  0  0  0  0  0  0  0  0  0  0
   26.7285    1.8183    0.0000 H   0  0  0  0  0  0  0  0  0  0  0  0
   25.9411    2.0790    0.0000 H   0  0  0  0  0  0  0  0  0  0  0  0
   27.2297    0.2877    0.0000 H   0  0  0  0  0  0  0  0  0  0  0  0
   27.2329    1.1171    0.0000 H   0  0  0  0  0  0  0  0  0  0  0  0
   25.0073    2.6370    0.0000 H   0  0  0  0  0  0  0  0  0  0  0  0
   24.6188    3.3344    0.0000 H   0  0  0  0  0  0  0  0  0  0  0  0
   24.6149   -0.7875    0.0000 H   0  0  0  0  0  0  0  0  0  0  0  0
   25.2325   -1.4099    0.0000 H   0  0  0  0  0  0  0  0  0  0  0  0
   25.8549   -0.7923    0.0000 H   0  0  0  0  0  0  0  0  0  0  0  0
   21.2817    0.6861    0.0000 H   0  0  0  0  0  0  0  0  0  0  0  0
   22.0799    0.6984    0.0000 H   0  0  0  0  0  0  0  0  0  0  0  0
   23.5073    3.9060    0.0000 H   0  0  0  0  0  0  0  0  0  0  0  0
   26.1992    2.2538    0.0000 H   0  0  0  0  0  0  0  0  0  0  0  0
   21.9864    0.7247    0.0000 H   0  0  0  0  0  0  0  0  0  0  0  0
   22.6087    0.1071    0.0000 H   0  0  0  0  0  0  0  0  0  0  0  0
   23.2263    0.7295    0.0000 H   0  0  0  0  0  0  0  0  0  0  0  0
   25.1342    3.0871    0.0000 H   0  0  0  0  0  0  0  0  0  0  0  0
   22.0680    3.7934    0.0000 H   0  0  0  0  0  0  0  0  0  0  0  0
   21.2697    3.7996    0.0000 H   0  0  0  0  0  0  0  0  0  0  0  0
   20.1164    1.8019    0.0000 H   0  0  0  0  0  0  0  0  0  0  0  0
   20.5208    1.1137    0.0000 H   0  0  0  0  0  0  0  0  0  0  0  0
   20.1871    2.4722    0.0000 H   0  0  0  0  0  0  0  0  0  0  0  0
   26.2866   -1.5103    0.0000 H   0  0  0  0  0  0  0  0  0  0  0  0
   28.1569   -0.8499    0.0000 H   0  0  0  0  0  0  0  0  0  0  0  0
   28.4729   -0.0320    0.0000 H   0  0  0  0  0  0  0  0  0  0  0  0
   27.6550    0.2839    0.0000 H   0  0  0  0  0  0  0  0  0  0  0  0
   18.9914    3.4032    0.0000 H   0  0  0  0  0  0  0  0  0  0  0  0
   19.2035    1.2006    0.0000 H   0  0  0  0  0  0  0  0  0  0  0  0
   19.6020    1.8908    0.0000 H   0  0  0  0  0  0  0  0  0  0  0  0
   18.6623    0.9732    0.0000 H   0  0  0  0  0  0  0  0  0  0  0  0
   22.0914   -2.9678    0.0000 H   0  0  0  0  0  0  0  0  0  0  0  0
   24.8973   -2.9786    0.0000 H   0  0  0  0  0  0  0  0  0  0  0  0
   17.2594    3.4032    0.0000 H   0  0  0  0  0  0  0  0  0  0  0  0
   16.7224    2.0932    0.0000 H   0  0  0  0  0  0  0  0  0  0  0  0
   22.0852   -4.5878    0.0000 H   0  0  0  0  0  0  0  0  0  0  0  0
   24.8911   -4.5986    0.0000 H   0  0  0  0  0  0  0  0  0  0  0  0
   16.7033    3.8201    0.0000 H   0  0  0  0  0  0  0  0  0  0  0  0
   15.8564    3.5932    0.0000 H   0  0  0  0  0  0  0  0  0  0  0  0
   16.0833    2.7463    0.0000 H   0  0  0  0  0  0  0  0  0  0  0  0
   23.4850   -5.4032    0.0000 H   0  0  0  0  0  0  0  0  0  0  0  0
   15.5273    1.1632    0.0000 H   0  0  0  0  0  0  0  0  0  0  0  0
   18.6814   -0.7537    0.0000 H   0  0  0  0  0  0  0  0  0  0  0  0
   19.5284   -0.5268    0.0000 H   0  0  0  0  0  0  0  0  0  0  0  0
   19.3014    0.3201    0.0000 H   0  0  0  0  0  0  0  0  0  0  0  0
   14.2628    0.8082    0.0000 H   0  0  0  0  0  0  0  0  0  0  0  0
   15.0598    0.8082    0.0000 H   0  0  0  0  0  0  0  0  0  0  0  0
   13.2583    2.0932    0.0000 H   0  0  0  0  0  0  0  0  0  0  0  0
   15.1982    3.5932    0.0000 H   0  0  0  0  0  0  0  0  0  0  0  0
   13.7953    3.4032    0.0000 H   0  0  0  0  0  0  0  0  0  0  0  0
   15.2813    4.2832    0.0000 H   0  0  0  0  0  0  0  0  0  0  0  0
   14.6613    4.9032    0.0000 H   0  0  0  0  0  0  0  0  0  0  0  0
   14.0413    4.2832    0.0000 H   0  0  0  0  0  0  0  0  0  0  0  0
   12.6002    2.4732    0.0000 H   0  0  0  0  0  0  0  0  0  0  0  0
   12.3092    0.2832    0.0000 H   0  0  0  0  0  0  0  0  0  0  0  0
   12.9292   -0.3368    0.0000 H   0  0  0  0  0  0  0  0  0  0  0  0
   13.5492    0.2832    0.0000 H   0  0  0  0  0  0  0  0  0  0  0  0
   12.2753    1.2006    0.0000 H   0  0  0  0  0  0  0  0  0  0  0  0
   12.6738    1.8908    0.0000 H   0  0  0  0  0  0  0  0  0  0  0  0
   11.7341    0.9732    0.0000 H   0  0  0  0  0  0  0  0  0  0  0  0
    9.7942    2.0932    0.0000 H   0  0  0  0  0  0  0  0  0  0  0  0
   10.3312    3.4032    0.0000 H   0  0  0  0  0  0  0  0  0  0  0  0
    9.7751    3.8201    0.0000 H   0  0  0  0  0  0  0  0  0  0  0  0
    8.9282    3.5932    0.0000 H   0  0  0  0  0  0  0  0  0  0  0  0
    9.1551    2.7463    0.0000 H   0  0  0  0  0  0  0  0  0  0  0  0
    8.5991    1.1632    0.0000 H   0  0  0  0  0  0  0  0  0  0  0  0
    9.2097    2.6755    0.0000 H   0  0  0  0  0  0  0  0  0  0  0  0
    8.8112    3.3658    0.0000 H   0  0  0  0  0  0  0  0  0  0  0  0
    8.2700    3.5932    0.0000 H   0  0  0  0  0  0  0  0  0  0  0  0
    6.8671    3.4032    0.0000 H   0  0  0  0  0  0  0  0  0  0  0  0
    6.8671    1.1632    0.0000 H   0  0  0  0  0  0  0  0  0  0  0  0
   11.7532   -0.7537    0.0000 H   0  0  0  0  0  0  0  0  0  0  0  0
   12.6002   -0.5268    0.0000 H   0  0  0  0  0  0  0  0  0  0  0  0
   12.3732    0.3201    0.0000 H   0  0  0  0  0  0  0  0  0  0  0  0
    5.1350    3.4032    0.0000 H   0  0  0  0  0  0  0  0  0  0  0  0
    5.6910    1.8201    0.0000 H   0  0  0  0  0  0  0  0  0  0  0  0
    5.4641    0.9732    0.0000 H   0  0  0  0  0  0  0  0  0  0  0  0
    6.3110    0.7463    0.0000 H   0  0  0  0  0  0  0  0  0  0  0  0
    4.6675    3.7581    0.0000 H   0  0  0  0  0  0  0  0  0  0  0  0
    3.8705    3.7581    0.0000 H   0  0  0  0  0  0  0  0  0  0  0  0
    3.4030    3.4032    0.0000 H   0  0  0  0  0  0  0  0  0  0  0  0
    3.4030    1.1632    0.0000 H   0  0  0  0  0  0  0  0  0  0  0  0
    4.8059    0.9732    0.0000 H   0  0  0  0  0  0  0  0  0  0  0  0
    7.1771    5.3201    0.0000 H   0  0  0  0  0  0  0  0  0  0  0  0
    6.3301    5.0932    0.0000 H   0  0  0  0  0  0  0  0  0  0  0  0
    6.5571    4.2463    0.0000 H   0  0  0  0  0  0  0  0  0  0  0  0
    3.6490    0.2832    0.0000 H   0  0  0  0  0  0  0  0  0  0  0  0
    4.2690   -0.3368    0.0000 H   0  0  0  0  0  0  0  0  0  0  0  0
    4.8890    0.2832    0.0000 H   0  0  0  0  0  0  0  0  0  0  0  0
    2.0000    1.5932    0.0000 H   0  0  0  0  0  0  0  0  0  0  0  0
    3.1569    4.2832    0.0000 H   0  0  0  0  0  0  0  0  0  0  0  0
    2.5369    4.9032    0.0000 H   0  0  0  0  0  0  0  0  0  0  0  0
    1.9169    4.2832    0.0000 H   0  0  0  0  0  0  0  0  0  0  0  0
  1 23  1  0  0  0  0
  1102  1  0  0  0  0
  2 25  1  0  0  0  0
  2106  1  0  0  0  0
  3 27  1  0  0  0  0
  3 44  1  0  0  0  0
  4 28  1  0  0  0  0
  4112  1  0  0  0  0
  5 42  1  0  0  0  0
  5 45  1  0  0  0  0
  6 39  2  0  0  0  0
  7 44  2  0  0  0  0
  8 45  1  0  0  0  0
  8 51  1  0  0  0  0
  9 48  1  0  0  0  0
  9 58  1  0  0  0  0
 10 52  1  0  0  0  0
 10 57  1  0  0  0  0
 11 57  1  0  0  0  0
 11 61  1  0  0  0  0
 12 60  1  0  0  0  0
 12 65  1  0  0  0  0
 13 62  1  0  0  0  0
 13 64  1  0  0  0  0
 14 64  1  0  0  0  0
 14 69  1  0  0  0  0
 15 68  1  0  0  0  0
 15 71  1  0  0  0  0
 16 67  1  0  0  0  0
 16 76  1  0  0  0  0
 17 71  1  0  0  0  0
 17 75  1  0  0  0  0
 18 74  1  0  0  0  0
 18 77  1  0  0  0  0
 19 73  1  0  0  0  0
 19 83  1  0  0  0  0
 20 77  1  0  0  0  0
 20 82  1  0  0  0  0
 21 80  1  0  0  0  0
 21 85  1  0  0  0  0
 22 81  1  0  0  0  0
 22178  1  0  0  0  0
 23 24  1  0  0  0  0
 23 25  1  0  0  0  0
 23 31  1  0  0  0  0
 24 27  1  0  0  0  0
 24 28  1  0  0  0  0
 24 34  1  0  0  0  0
 25 26  1  0  0  0  0
 25 33  1  0  0  0  0
 26 29  1  0  0  0  0
 26 30  1  0  0  0  0
 26 86  1  0  0  0  0
 27 30  1  0  0  0  0
 27 87  1  0  0  0  0
 28 32  1  0  0  0  0
 28 39  1  0  0  0  0
 29 35  1  0  0  0  0
 29 36  1  0  0  0  0
 29 38  1  0  0  0  0
 30 88  1  0  0  0  0
 30 89  1  0  0  0  0
 31 32  1  0  0  0  0
 31 90  1  0  0  0  0
 31 91  1  0  0  0  0
 32 92  1  0  0  0  0
 32 93  1  0  0  0  0
 33 37  1  0  0  0  0
 33 94  1  0  0  0  0
 33 95  1  0  0  0  0
 34 96  1  0  0  0  0
 34 97  1  0  0  0  0
 34 98  1  0  0  0  0
 35 37  2  0  0  0  0
 35 40  1  0  0  0  0
 36 41  1  0  0  0  0
 36 99  1  0  0  0  0
 36100  1  0  0  0  0
 37101  1  0  0  0  0
 38103  1  0  0  0  0
 38104  1  0  0  0  0
 38105  1  0  0  0  0
 39 43  1  0  0  0  0
 40 42  1  0  0  0  0
 40107  1  0  0  0  0
 40108  1  0  0  0  0
 41 42  1  0  0  0  0
 41109  1  0  0  0  0
 41110  1  0  0  0  0
 42111  1  0  0  0  0
 43113  1  0  0  0  0
 43114  1  0  0  0  0
 43115  1  0  0  0  0
 44 46  1  0  0  0  0
 45 47  1  0  0  0  0
 45116  1  0  0  0  0
 46 49  2  0  0  0  0
 46 50  1  0  0  0  0
 47 48  1  0  0  0  0
 47117  1  0  0  0  0
 47118  1  0  0  0  0
 48 52  1  0  0  0  0
 48119  1  0  0  0  0
 49 53  1  0  0  0  0
 49120  1  0  0  0  0
 50 54  2  0  0  0  0
 50121  1  0  0  0  0
 51 52  1  0  0  0  0
 51 55  1  0  0  0  0
 51122  1  0  0  0  0
 52123  1  0  0  0  0
 53 56  2  0  0  0  0
 53124  1  0  0  0  0
 54 56  1  0  0  0  0
 54125  1  0  0  0  0
 55126  1  0  0  0  0
 55127  1  0  0  0  0
 55128  1  0  0  0  0
 56129  1  0  0  0  0
 57 59  1  0  0  0  0
 57130  1  0  0  0  0
 58131  1  0  0  0  0
 58132  1  0  0  0  0
 58133  1  0  0  0  0
 59 60  1  0  0  0  0
 59134  1  0  0  0  0
 59135  1  0  0  0  0
 60 62  1  0  0  0  0
 60136  1  0  0  0  0
 61 62  1  0  0  0  0
 61 63  1  0  0  0  0
 61137  1  0  0  0  0
 62138  1  0  0  0  0
 63139  1  0  0  0  0
 63140  1  0  0  0  0
 63141  1  0  0  0  0
 64 66  1  0  0  0  0
 64142  1  0  0  0  0
 65143  1  0  0  0  0
 65144  1  0  0  0  0
 65145  1  0  0  0  0
 66 67  1  0  0  0  0
 66146  1  0  0  0  0
 66147  1  0  0  0  0
 67 68  1  0  0  0  0
 67148  1  0  0  0  0
 68 69  1  0  0  0  0
 68149  1  0  0  0  0
 69 70  1  0  0  0  0
 69150  1  0  0  0  0
 70151  1  0  0  0  0
 70152  1  0  0  0  0
 70153  1  0  0  0  0
 71 72  1  0  0  0  0
 71154  1  0  0  0  0
 72 73  1  0  0  0  0
 72155  1  0  0  0  0
 72156  1  0  0  0  0
 73 74  1  0  0  0  0
 73157  1  0  0  0  0
 74 75  1  0  0  0  0
 74158  1  0  0  0  0
 75 78  1  0  0  0  0
 75159  1  0  0  0  0
 76160  1  0  0  0  0
 76161  1  0  0  0  0
 76162  1  0  0  0  0
 77 79  1  0  0  0  0
 77163  1  0  0  0  0
 78164  1  0  0  0  0
 78165  1  0  0  0  0
 78166  1  0  0  0  0
 79 80  1  0  0  0  0
 79167  1  0  0  0  0
 79168  1  0  0  0  0
 80 81  1  0  0  0  0
 80169  1  0  0  0  0
 81 82  1  0  0  0  0
 81170  1  0  0  0  0
 82 84  1  0  0  0  0
 82171  1  0  0  0  0
 83172  1  0  0  0  0
 83173  1  0  0  0  0
 83174  1  0  0  0  0
 84175  1  0  0  0  0
 84176  1  0  0  0  0
 84177  1  0  0  0  0
 85179  1  0  0  0  0
 85180  1  0  0  0  0
 85181  1  0  0  0  0
M  END
> <PUBCHEM_COMPOUND_CID>
3083421

> <PUBCHEM_COMPOUND_CANONICALIZED>
1

> <PUBCHEM_CACTVS_COMPLEXITY>
2310

> <PUBCHEM_CACTVS_HBOND_ACCEPTOR>
22

> <PUBCHEM_CACTVS_HBOND_DONOR>
4

> <PUBCHEM_CACTVS_ROTATABLE_BOND>
19

> <PUBCHEM_CACTVS_SUBSKEYS>
AAADcfB8PgAAAAAAAAAAAAAAAAAAAYAAAAA0aNEiQAAAAGCBAAAAGgAACAAAD1SwmAMyCIAABgCIAqDSCAICAAAkAAAIiAFACMgZNjKANRiicQAlwAEPqYfK7PzPgAAAAAAAAADCAAYQADCAAYQADAAAAA==

> <PUBCHEM_IUPAC_OPENEYE_NAME>
[17-acetyl-8,14,17-trihydroxy-3-[5-[5-[5-[5-(5-hydroxy-4-methoxy-6-methyl-tetrahydropyran-2-yl)oxy-4-methoxy-6-methyl-tetrahydropyran-2-yl]oxy-4-methoxy-6-methyl-tetrahydropyran-2-yl]oxy-4-methoxy-6-methyl-tetrahydropyran-2-yl]oxy-4-methoxy-6-methyl-tetrahydropyran-2-yl]oxy-10,13-dimethyl-1,2,3,4,7,9,11,12,15,16-decahydrocyclopenta[a]phenanthren-12-yl] benzoate

> <PUBCHEM_IUPAC_CAS_NAME>
benzoic acid [17-acetyl-8,14,17-trihydroxy-3-[[5-[[5-[[5-[[5-[(5-hydroxy-4-methoxy-6-methyl-2-oxanyl)oxy]-4-methoxy-6-methyl-2-oxanyl]oxy]-4-methoxy-6-methyl-2-oxanyl]oxy]-4-methoxy-6-methyl-2-oxanyl]oxy]-4-methoxy-6-methyl-2-oxanyl]oxy]-10,13-dimethyl-1,2,3,4,7,9,11,12,15,16-decahydrocyclopenta[a]phenanthren-12-yl] ester

> <PUBCHEM_IUPAC_NAME_MARKUP>
[17-acetyl-8,14,17-trihydroxy-3-[5-[5-[5-[5-(5-hydroxy-4-methoxy-6-methyloxan-2-yl)oxy-4-methoxy-6-methyloxan-2-yl]oxy-4-methoxy-6-methyloxan-2-yl]oxy-4-methoxy-6-methyloxan-2-yl]oxy-4-methoxy-6-methyloxan-2-yl]oxy-10,13-dimethyl-1,2,3,4,7,9,11,12,15,16-decahydrocyclopenta[a]phenanthren-12-yl] benzoate

> <PUBCHEM_IUPAC_NAME>
[17-acetyl-8,14,17-trihydroxy-3-[5-[5-[5-[5-(5-hydroxy-4-methoxy-6-methyloxan-2-yl)oxy-4-methoxy-6-methyloxan-2-yl]oxy-4-methoxy-6-methyloxan-2-yl]oxy-4-methoxy-6-methyloxan-2-yl]oxy-4-methoxy-6-methyloxan-2-yl]oxy-10,13-dimethyl-1,2,3,4,7,9,11,12,15,16-decahydrocyclopenta[a]phenanthren-12-yl] benzoate

> <PUBCHEM_IUPAC_SYSTEMATIC_NAME>
[17-ethanoyl-3-[4-methoxy-5-[4-methoxy-5-[4-methoxy-5-[4-methoxy-5-(4-methoxy-6-methyl-5-oxidanyl-oxan-2-yl)oxy-6-methyl-oxan-2-yl]oxy-6-methyl-oxan-2-yl]oxy-6-methyl-oxan-2-yl]oxy-6-methyl-oxan-2-yl]oxy-10,13-dimethyl-8,14,17-tris(oxidanyl)-1,2,3,4,7,9,11,12,15,16-decahydrocyclopenta[a]phenanthren-12-yl] benzoate

> <PUBCHEM_IUPAC_TRADITIONAL_NAME>
benzoic acid [17-acetyl-8,14,17-trihydroxy-3-[5-[5-[5-[5-(5-hydroxy-4-methoxy-6-methyl-tetrahydropyran-2-yl)oxy-4-methoxy-6-methyl-tetrahydropyran-2-yl]oxy-4-methoxy-6-methyl-tetrahydropyran-2-yl]oxy-4-methoxy-6-methyl-tetrahydropyran-2-yl]oxy-4-methoxy-6-methyl-tetrahydropyran-2-yl]oxy-10,13-dimethyl-1,2,3,4,7,9,11,12,15,16-decahydrocyclopenta[a]phenanthren-12-yl] ester

> <PUBCHEM_IUPAC_INCHI>
InChI=1S/C63H96O22/c1-32-53(65)41(70-9)26-49(75-32)82-55-34(3)77-51(28-43(55)72-11)84-57-36(5)79-52(30-45(57)74-13)85-56-35(4)78-50(29-44(56)73-12)83-54-33(2)76-48(27-42(54)71-10)80-40-20-21-59(7)39(25-40)19-22-62(68)46(59)31-47(81-58(66)38-17-15-14-16-18-38)60(8)61(67,37(6)64)23-24-63(60,62)69/h14-19,32-36,40-57,65,67-69H,20-31H2,1-13H3

> <PUBCHEM_IUPAC_INCHIKEY>
NOUHJGOURCZSGH-UHFFFAOYSA-N

> <PUBCHEM_XLOGP3_AA>
4

> <PUBCHEM_EXACT_MASS>
1204.639325

> <PUBCHEM_MOLECULAR_FORMULA>
C63H96O22

> <PUBCHEM_MOLECULAR_WEIGHT>
1205.4

> <PUBCHEM_OPENEYE_CAN_SMILES>
CC1C(C(CC(O1)OC2C(OC(CC2OC)OC3C(OC(CC3OC)OC4C(OC(CC4OC)OC5C(OC(CC5OC)OC6CCC7(C8CC(C9(C(CCC9(C8(CC=C7C6)O)O)(C(=O)C)O)C)OC(=O)C1=CC=CC=C1)C)C)C)C)C)OC)O

> <PUBCHEM_OPENEYE_ISO_SMILES>
CC1C(C(CC(O1)OC2C(OC(CC2OC)OC3C(OC(CC3OC)OC4C(OC(CC4OC)OC5C(OC(CC5OC)OC6CCC7(C8CC(C9(C(CCC9(C8(CC=C7C6)O)O)(C(=O)C)O)C)OC(=O)C1=CC=CC=C1)C)C)C)C)C)OC)O

> <PUBCHEM_CACTVS_TPSA>
263

> <PUBCHEM_MONOISOTOPIC_WEIGHT>
1204.639325

> <PUBCHEM_TOTAL_CHARGE>
0

> <PUBCHEM_HEAVY_ATOM_COUNT>
85

> <PUBCHEM_ATOM_DEF_STEREO_COUNT>
0

> <PUBCHEM_ATOM_UDEF_STEREO_COUNT>
28

> <PUBCHEM_BOND_DEF_STEREO_COUNT>
0

> <PUBCHEM_BOND_UDEF_STEREO_COUNT>
0

> <PUBCHEM_ISOTOPIC_ATOM_COUNT>
0

> <PUBCHEM_COMPONENT_COUNT>
1

> <PUBCHEM_CACTVS_TAUTO_COUNT>
-1

> <PUBCHEM_COORDINATE_TYPE>
1
5
255

> <PUBCHEM_BONDANNOTATIONS>
23  1  3
52  10  3
57  10  3
60  12  3
62  13  3
64  13  3
68  15  3
71  15  3
67  16  3
74  18  3
77  18  3
73  19  3
25  2  3
80  21  3
81  22  3
24  34  3
26  30  3
29  38  3
27  3  3
28  4  3
46  49  8
46  50  8
49  53  8
42  5  3
45  5  3
50  54  8
51  55  3
53  56  8
54  56  8
61  63  3
69  70  3
75  78  3
82  84  3
48  9  3

$$$$
