188454
  -OEChem-11202003193D

 32 33  0     0  0  0  0  0  0999 V2000
    1.8957   -1.0509   -0.0707 O   0  0  0  0  0  0  0  0  0  0  0  0
   -2.7609   -1.7430   -0.4107 O   0  0  0  0  0  0  0  0  0  0  0  0
    3.0577   -0.2039    0.0615 C   0  0  0  0  0  0  0  0  0  0  0  0
    2.7887    1.2800    0.1496 C   0  0  0  0  0  0  0  0  0  0  0  0
    0.6549   -0.4801   -0.1080 C   0  0  0  0  0  0  0  0  0  0  0  0
    0.4335    0.8960   -0.0248 C   0  0  0  0  0  0  0  0  0  0  0  0
    3.7827   -0.6620    1.3325 C   0  0  0  0  0  0  0  0  0  0  0  0
    3.9383   -0.4865   -1.1615 C   0  0  0  0  0  0  0  0  0  0  0  0
    1.5611    1.8019    0.1099 C   0  0  0  0  0  0  0  0  0  0  0  0
   -0.8764    1.3879   -0.0718 C   0  0  0  0  0  0  0  0  0  0  0  0
   -0.4247   -1.3579   -0.2374 C   0  0  0  0  0  0  0  0  0  0  0  0
   -1.9530    0.5093   -0.2009 C   0  0  0  0  0  0  0  0  0  0  0  0
   -1.7272   -0.8629   -0.2838 C   0  0  0  0  0  0  0  0  0  0  0  0
   -3.3044    1.0518   -0.2467 C   0  0  0  0  0  0  0  0  0  0  0  0
   -3.3304   -2.2500    0.7939 C   0  0  0  0  0  0  0  0  0  0  0  0
   -3.7356    2.1701    0.3691 C   0  0  0  0  0  0  0  0  0  0  0  0
    3.6394    1.9496    0.2501 H   0  0  0  0  0  0  0  0  0  0  0  0
    3.1527   -0.5102    2.2173 H   0  0  0  0  0  0  0  0  0  0  0  0
    4.7249   -0.1241    1.4852 H   0  0  0  0  0  0  0  0  0  0  0  0
    4.0019   -1.7355    1.2918 H   0  0  0  0  0  0  0  0  0  0  0  0
    4.8874    0.0592   -1.1198 H   0  0  0  0  0  0  0  0  0  0  0  0
    4.1600   -1.5570   -1.2444 H   0  0  0  0  0  0  0  0  0  0  0  0
    3.4213   -0.2069   -2.0875 H   0  0  0  0  0  0  0  0  0  0  0  0
    1.3966    2.8707    0.1753 H   0  0  0  0  0  0  0  0  0  0  0  0
   -1.0330    2.4638   -0.0224 H   0  0  0  0  0  0  0  0  0  0  0  0
   -0.2492   -2.4292   -0.3030 H   0  0  0  0  0  0  0  0  0  0  0  0
   -4.0309    0.4898   -0.8294 H   0  0  0  0  0  0  0  0  0  0  0  0
   -4.1633   -2.9068    0.5286 H   0  0  0  0  0  0  0  0  0  0  0  0
   -2.5895   -2.8332    1.3501 H   0  0  0  0  0  0  0  0  0  0  0  0
   -3.7126   -1.4372    1.4193 H   0  0  0  0  0  0  0  0  0  0  0  0
   -3.0940    2.7854    0.9895 H   0  0  0  0  0  0  0  0  0  0  0  0
   -4.7714    2.4773    0.2656 H   0  0  0  0  0  0  0  0  0  0  0  0
  1  3  1  0  0  0  0
  1  5  1  0  0  0  0
  2 13  1  0  0  0  0
  2 15  1  0  0  0  0
  3  4  1  0  0  0  0
  3  7  1  0  0  0  0
  3  8  1  0  0  0  0
  4  9  2  0  0  0  0
  4 17  1  0  0  0  0
  5  6  1  0  0  0  0
  5 11  2  0  0  0  0
  6  9  1  0  0  0  0
  6 10  2  0  0  0  0
  7 18  1  0  0  0  0
  7 19  1  0  0  0  0
  7 20  1  0  0  0  0
  8 21  1  0  0  0  0
  8 22  1  0  0  0  0
  8 23  1  0  0  0  0
  9 24  1  0  0  0  0
 10 12  1  0  0  0  0
 10 25  1  0  0  0  0
 11 13  1  0  0  0  0
 11 26  1  0  0  0  0
 12 13  2  0  0  0  0
 12 14  1  0  0  0  0
 14 16  2  0  0  0  0
 14 27  1  0  0  0  0
 15 28  1  0  0  0  0
 15 29  1  0  0  0  0
 15 30  1  0  0  0  0
 16 31  1  0  0  0  0
 16 32  1  0  0  0  0
M  END
> <PUBCHEM_COMPOUND_CID>
188454

> <PUBCHEM_CONFORMER_RMSD>
0.6

> <PUBCHEM_CONFORMER_DIVERSEORDER>
1
2

> <PUBCHEM_MMFF94_PARTIAL_CHARGES>
21
1 -0.36
10 -0.15
11 -0.15
12 0.03
13 0.08
14 -0.18
15 0.28
16 -0.3
17 0.15
2 -0.36
24 0.15
25 0.15
26 0.15
27 0.15
3 0.42
31 0.15
32 0.15
4 -0.29
5 0.08
6 0.03
9 -0.18

> <PUBCHEM_EFFECTIVE_ROTOR_COUNT>
2.4

> <PUBCHEM_PHARMACOPHORE_FEATURES>
6
1 1 acceptor
1 16 hydrophobe
1 2 acceptor
3 3 7 8 hydrophobe
6 1 3 4 5 6 9 rings
6 5 6 10 11 12 13 rings

> <PUBCHEM_HEAVY_ATOM_COUNT>
16

> <PUBCHEM_ATOM_DEF_STEREO_COUNT>
0

> <PUBCHEM_ATOM_UDEF_STEREO_COUNT>
0

> <PUBCHEM_BOND_DEF_STEREO_COUNT>
0

> <PUBCHEM_BOND_UDEF_STEREO_COUNT>
0

> <PUBCHEM_ISOTOPIC_ATOM_COUNT>
0

> <PUBCHEM_COMPONENT_COUNT>
1

> <PUBCHEM_CACTVS_TAUTO_COUNT>
1

> <PUBCHEM_CONFORMER_ID>
0002E02600000001

> <PUBCHEM_MMFF94_ENERGY>
61.6834

> <PUBCHEM_FEATURE_SELFOVERLAP>
30.476

> <PUBCHEM_SHAPE_FINGERPRINT>
10062212 137 18335690637730271506
10608611 8 18341889731458518169
10922523 26 18202284718736396830
10967382 1 18267584593950754109
11132069 177 18341607084140053216
11543360 7 15719671081931667382
11680986 33 18199475363395921103
12032990 46 18339648944014677070
12251169 10 18337387149822591569
12382932 28 18343017774590672616
12403814 3 17604148121420999773
12730499 353 17683516235867158837
12932764 1 17676198053020863540
13140716 1 18410569595721645008
13296908 3 18272652372134883230
13380535 21 18337397036969169239
13380535 76 18341608158182414807
13538477 17 18261108539435779256
13675066 3 18060698394603952200
13760787 19 17967537848229947066
14144814 61 18410007758380686602
14178342 30 18337376189182064610
14325111 11 18411697724779765508
14965852 173 18408884048870306565
15196674 1 18411418432105149740
15219456 202 18201440311112825332
15375462 189 17895749600154576258
15442244 35 18409725158064665040
15536298 74 18271242819824431396
15775835 57 18260552186488957580
16945 1 18337950073985084100
17804303 29 18411984650011822628
1813 80 16881035505281122610
18186145 218 18334289864443385476
19422 9 18113617910755367426
20281475 54 18186798071884761010
20510252 161 18272091664133369609
20871999 31 18336840757368867438
21267235 1 18410581703276611191
21501502 16 18336263539070040116
21501925 9 18338502162256182322
21524375 3 18269832026452878717
2334 1 18266737059506712221
23402539 116 18271230656946606437
23463225 33 18408037429227795108
23558518 356 18188492509507968225
23559900 14 18272370820502882606
2748010 2 18340479075298883805
335352 9 18267866073217144716
5104073 3 18410569604791381248
69090 78 18341043035070695077
74978 22 18411699893722445188
7832392 63 18411980239091095492
8809292 202 18408043996026997459
9709674 26 18344145877937090039

> <PUBCHEM_SHAPE_MULTIPOLES>
317.53
7.2
2.24
0.88
1.06
0.08
-0.08
0.26
-0.6
-2.23
-0.29
0.58
0.19
0.1

> <PUBCHEM_SHAPE_SELFOVERLAP>
676.146

> <PUBCHEM_SHAPE_VOLUME>
179.2

> <PUBCHEM_COORDINATE_TYPE>
2
5
10

$$$$
