100768
  -OEChem-11202003073D

 30 31  0     0  0  0  0  0  0999 V2000
   -2.0624   -1.0251   -0.0003 O   0  0  0  0  0  0  0  0  0  0  0  0
    2.5114   -2.2034    0.0009 O   0  0  0  0  0  0  0  0  0  0  0  0
    4.2453   -0.3321    0.0002 O   0  0  0  0  0  0  0  0  0  0  0  0
   -3.1340   -0.0573    0.0001 C   0  0  0  0  0  0  0  0  0  0  0  0
   -2.7152    1.3942    0.0001 C   0  0  0  0  0  0  0  0  0  0  0  0
   -0.7682   -0.5874   -0.0002 C   0  0  0  0  0  0  0  0  0  0  0  0
   -0.4076    0.7616   -0.0001 C   0  0  0  0  0  0  0  0  0  0  0  0
   -3.9702   -0.3407    1.2536 C   0  0  0  0  0  0  0  0  0  0  0  0
   -3.9712   -0.3406   -1.2526 C   0  0  0  0  0  0  0  0  0  0  0  0
   -1.4390    1.7846   -0.0002 C   0  0  0  0  0  0  0  0  0  0  0  0
    0.9474    1.1134   -0.0004 C   0  0  0  0  0  0  0  0  0  0  0  0
    0.2183   -1.5772   -0.0005 C   0  0  0  0  0  0  0  0  0  0  0  0
    1.9308    0.1230   -0.0007 C   0  0  0  0  0  0  0  0  0  0  0  0
    1.5664   -1.2216   -0.0007 C   0  0  0  0  0  0  0  0  0  0  0  0
    3.3331    0.5168   -0.0001 C   0  0  0  0  0  0  0  0  0  0  0  0
    3.7151    1.9919    0.0008 C   0  0  0  0  0  0  0  0  0  0  0  0
   -3.4946    2.1523    0.0002 H   0  0  0  0  0  0  0  0  0  0  0  0
   -4.2993   -1.3864    1.2755 H   0  0  0  0  0  0  0  0  0  0  0  0
   -3.3759   -0.1863    2.1624 H   0  0  0  0  0  0  0  0  0  0  0  0
   -4.8570    0.3001    1.3100 H   0  0  0  0  0  0  0  0  0  0  0  0
   -3.3777   -0.1862   -2.1618 H   0  0  0  0  0  0  0  0  0  0  0  0
   -4.3003   -1.3863   -1.2742 H   0  0  0  0  0  0  0  0  0  0  0  0
   -4.8580    0.3002   -1.3082 H   0  0  0  0  0  0  0  0  0  0  0  0
   -1.1668    2.8332   -0.0003 H   0  0  0  0  0  0  0  0  0  0  0  0
    1.2024    2.1696   -0.0003 H   0  0  0  0  0  0  0  0  0  0  0  0
   -0.0723   -2.6253   -0.0003 H   0  0  0  0  0  0  0  0  0  0  0  0
    3.3408    2.4808    0.9039 H   0  0  0  0  0  0  0  0  0  0  0  0
    3.3412    2.4818   -0.9020 H   0  0  0  0  0  0  0  0  0  0  0  0
    4.8067    2.0771    0.0010 H   0  0  0  0  0  0  0  0  0  0  0  0
    2.0700   -3.0701    0.0011 H   0  0  0  0  0  0  0  0  0  0  0  0
  1  4  1  0  0  0  0
  1  6  1  0  0  0  0
  2 14  1  0  0  0  0
  2 30  1  0  0  0  0
  3 15  2  0  0  0  0
  4  5  1  0  0  0  0
  4  8  1  0  0  0  0
  4  9  1  0  0  0  0
  5 10  2  0  0  0  0
  5 17  1  0  0  0  0
  6  7  1  0  0  0  0
  6 12  2  0  0  0  0
  7 10  1  0  0  0  0
  7 11  2  0  0  0  0
  8 18  1  0  0  0  0
  8 19  1  0  0  0  0
  8 20  1  0  0  0  0
  9 21  1  0  0  0  0
  9 22  1  0  0  0  0
  9 23  1  0  0  0  0
 10 24  1  0  0  0  0
 11 13  1  0  0  0  0
 11 25  1  0  0  0  0
 12 14  1  0  0  0  0
 12 26  1  0  0  0  0
 13 14  2  0  0  0  0
 13 15  1  0  0  0  0
 15 16  1  0  0  0  0
 16 27  1  0  0  0  0
 16 28  1  0  0  0  0
 16 29  1  0  0  0  0
M  END
> <PUBCHEM_COMPOUND_CID>
100768

> <PUBCHEM_CONFORMER_RMSD>
0.6

> <PUBCHEM_CONFORMER_DIVERSEORDER>
1
2

> <PUBCHEM_MMFF94_PARTIAL_CHARGES>
19
1 -0.36
10 -0.18
11 -0.15
12 -0.15
13 0.09
14 0.08
15 0.42
16 0.06
17 0.15
2 -0.53
24 0.15
25 0.15
26 0.15
3 -0.57
30 0.45
4 0.42
5 -0.29
6 0.08
7 0.03

> <PUBCHEM_EFFECTIVE_ROTOR_COUNT>
1.4

> <PUBCHEM_PHARMACOPHORE_FEATURES>
6
1 1 acceptor
1 2 donor
1 3 acceptor
3 4 8 9 hydrophobe
6 1 4 5 6 7 10 rings
6 6 7 11 12 13 14 rings

> <PUBCHEM_HEAVY_ATOM_COUNT>
16

> <PUBCHEM_ATOM_DEF_STEREO_COUNT>
0

> <PUBCHEM_ATOM_UDEF_STEREO_COUNT>
0

> <PUBCHEM_BOND_DEF_STEREO_COUNT>
0

> <PUBCHEM_BOND_UDEF_STEREO_COUNT>
0

> <PUBCHEM_ISOTOPIC_ATOM_COUNT>
0

> <PUBCHEM_COMPONENT_COUNT>
1

> <PUBCHEM_CACTVS_TAUTO_COUNT>
9

> <PUBCHEM_CONFORMER_ID>
000189A000000001

> <PUBCHEM_MMFF94_ENERGY>
50.4341

> <PUBCHEM_FEATURE_SELFOVERLAP>
30.475

> <PUBCHEM_SHAPE_FINGERPRINT>
10608611 8 18336543815793222620
10967382 1 18410575114970612004
10980938 120 18342454842059778362
11132069 177 18339070592445591408
11471102 20 18410851083883625892
11543360 7 15697437865991139504
12236239 1 17846782931996224811
12932764 1 17632567245508058985
13140716 1 18122347053579471888
13221675 6 18412825806471731878
13296908 3 18114467768893046923
13380535 76 18409165528279355498
13583140 156 16806147986359300136
13760787 5 18411982476884893477
14144814 61 18409449163313087465
14325111 11 18410575050361635648
14576447 43 18057585754896498607
15196674 1 18410573989504635589
15219456 202 18336549317756715251
15309172 13 18343025492900169395
15375358 24 18186796993879455833
15375462 189 18202567284808925985
15442244 35 18123469376094983314
15536298 74 18343019943992294574
15775835 57 18202005434293227153
16945 1 18410575119207492069
17844478 74 18187092736890556577
18186145 218 18201444696417073580
19026448 4 16805318907389196321
19026448 5 16845577525634939813
200 152 18201146711701966029
20279233 1 17894068498610642027
20510252 161 18343305842495507961
20645477 70 18339634530426380255
21267235 1 18411427193385012774
21501502 16 18268709415863068385
221490 88 18337117748283974898
22854114 111 18410575089311662504
2334 1 18338517430511556520
23402539 116 18271799125168001500
23402655 69 18341601578524886045
23463225 33 18335981982863237312
23493267 7 17603576422740457169
23559900 14 18267296535206202402
25610 137 18410296917069947913
2748010 2 18265613182439568020
5104073 3 18337111172398706905
53812653 166 18271524286158343320
57096353 35 18341610446951792421
58051976 378 18412823594906504980
6333272 397 18336266846648610120
69090 78 18202279238416305222
7364860 26 18341896234640228662
8809292 202 18114751537234802275
9709674 26 18411422773879645430

> <PUBCHEM_SHAPE_MULTIPOLES>
311.66
7.46
1.92
0.81
0.48
0.01
0
-0.71
0
1.1
0
-0.83
0.05
0

> <PUBCHEM_SHAPE_SELFOVERLAP>
671.759

> <PUBCHEM_SHAPE_VOLUME>
173.2

> <PUBCHEM_COORDINATE_TYPE>
2
5
10

$$$$
