336322
  -OEChem-10012005543D

 37 39  0     1  0  0  0  0  0999 V2000
    2.1746    1.1118   -0.0494 O   0  0  0  0  0  0  0  0  0  0  0  0
    3.3083   -1.0449   -1.7028 O   0  0  0  0  0  0  0  0  0  0  0  0
   -0.7233   -2.6403    0.2475 O   0  0  0  0  0  0  0  0  0  0  0  0
   -5.3728   -0.7341    0.0428 O   0  0  0  0  0  0  0  0  0  0  0  0
   -0.1719    1.3776   -0.0986 N   0  0  0  0  0  0  0  0  0  0  0  0
    3.3336    0.3392    0.3133 C   0  0  0  0  0  0  0  0  0  0  0  0
    3.2625   -1.0829   -0.2737 C   0  0  1  0  0  0  0  0  0  0  0  0
    1.9635   -1.7796    0.1189 C   0  0  0  0  0  0  0  0  0  0  0  0
    0.7999   -0.8318    0.0789 C   0  0  0  0  0  0  0  0  0  0  0  0
    0.9237    0.5074   -0.0209 C   0  0  0  0  0  0  0  0  0  0  0  0
    3.4520    0.3212    1.8474 C   0  0  0  0  0  0  0  0  0  0  0  0
    4.5375    1.1114   -0.2493 C   0  0  0  0  0  0  0  0  0  0  0  0
   -0.5610   -1.4310    0.1337 C   0  0  0  0  0  0  0  0  0  0  0  0
   -1.4972    0.8738   -0.0668 C   0  0  0  0  0  0  0  0  0  0  0  0
   -1.7163   -0.5122    0.0487 C   0  0  0  0  0  0  0  0  0  0  0  0
   -0.0145    2.8309   -0.2119 C   0  0  0  0  0  0  0  0  0  0  0  0
   -2.6401    1.6936   -0.1440 C   0  0  0  0  0  0  0  0  0  0  0  0
   -3.0103   -1.0532    0.0859 C   0  0  0  0  0  0  0  0  0  0  0  0
   -4.1164   -0.2145    0.0075 C   0  0  0  0  0  0  0  0  0  0  0  0
   -3.9318    1.1575   -0.1075 C   0  0  0  0  0  0  0  0  0  0  0  0
    4.1232   -1.6768    0.0557 H   0  0  0  0  0  0  0  0  0  0  0  0
    2.0489   -2.1806    1.1360 H   0  0  0  0  0  0  0  0  0  0  0  0
    1.7775   -2.6254   -0.5542 H   0  0  0  0  0  0  0  0  0  0  0  0
    4.3461   -0.2213    2.1717 H   0  0  0  0  0  0  0  0  0  0  0  0
    3.5046    1.3425    2.2430 H   0  0  0  0  0  0  0  0  0  0  0  0
    2.5804   -0.1388    2.3239 H   0  0  0  0  0  0  0  0  0  0  0  0
    5.4799    0.5953   -0.0386 H   0  0  0  0  0  0  0  0  0  0  0  0
    4.4495    1.2494   -1.3328 H   0  0  0  0  0  0  0  0  0  0  0  0
    4.5904    2.1191    0.1794 H   0  0  0  0  0  0  0  0  0  0  0  0
    3.3415   -1.9630   -2.0212 H   0  0  0  0  0  0  0  0  0  0  0  0
   -0.4740    3.3402    0.6429 H   0  0  0  0  0  0  0  0  0  0  0  0
   -0.4603    3.1996   -1.1428 H   0  0  0  0  0  0  0  0  0  0  0  0
    1.0346    3.1447   -0.2288 H   0  0  0  0  0  0  0  0  0  0  0  0
   -2.5595    2.7736   -0.2346 H   0  0  0  0  0  0  0  0  0  0  0  0
   -3.1596   -2.1264    0.1754 H   0  0  0  0  0  0  0  0  0  0  0  0
   -4.7887    1.8231   -0.1697 H   0  0  0  0  0  0  0  0  0  0  0  0
   -5.3129   -1.7014    0.1250 H   0  0  0  0  0  0  0  0  0  0  0  0
  1  6  1  0  0  0  0
  1 10  1  0  0  0  0
  2  7  1  0  0  0  0
  2 30  1  0  0  0  0
  3 13  2  0  0  0  0
  4 19  1  0  0  0  0
  4 37  1  0  0  0  0
  5 10  1  0  0  0  0
  5 14  1  0  0  0  0
  5 16  1  0  0  0  0
  6  7  1  0  0  0  0
  6 11  1  0  0  0  0
  6 12  1  0  0  0  0
  7  8  1  0  0  0  0
  7 21  1  0  0  0  0
  8  9  1  0  0  0  0
  8 22  1  0  0  0  0
  8 23  1  0  0  0  0
  9 10  2  0  0  0  0
  9 13  1  0  0  0  0
 11 24  1  0  0  0  0
 11 25  1  0  0  0  0
 11 26  1  0  0  0  0
 12 27  1  0  0  0  0
 12 28  1  0  0  0  0
 12 29  1  0  0  0  0
 13 15  1  0  0  0  0
 14 15  2  0  0  0  0
 14 17  1  0  0  0  0
 15 18  1  0  0  0  0
 16 31  1  0  0  0  0
 16 32  1  0  0  0  0
 16 33  1  0  0  0  0
 17 20  2  0  0  0  0
 17 34  1  0  0  0  0
 18 19  2  0  0  0  0
 18 35  1  0  0  0  0
 19 20  1  0  0  0  0
 20 36  1  0  0  0  0
M  END
> <PUBCHEM_COMPOUND_CID>
336322

> <PUBCHEM_CONFORMER_RMSD>
0.6

> <PUBCHEM_CONFORMER_DIVERSEORDER>
2
1

> <PUBCHEM_MMFF94_PARTIAL_CHARGES>
23
1 -0.36
10 0.18
13 0.47
14 0.1
15 0.09
16 0.37
17 -0.15
18 -0.15
19 0.08
2 -0.68
20 -0.15
3 -0.57
30 0.4
34 0.15
35 0.15
36 0.15
37 0.45
4 -0.53
5 -0.57
6 0.28
7 0.28
8 0.14
9 -0.12

> <PUBCHEM_EFFECTIVE_ROTOR_COUNT>
0.8

> <PUBCHEM_PHARMACOPHORE_FEATURES>
10
1 1 acceptor
1 2 acceptor
1 2 donor
1 3 acceptor
1 4 donor
1 5 cation
3 6 11 12 hydrophobe
6 1 6 7 8 9 10 rings
6 14 15 17 18 19 20 rings
6 5 9 10 13 14 15 rings

> <PUBCHEM_HEAVY_ATOM_COUNT>
20

> <PUBCHEM_ATOM_DEF_STEREO_COUNT>
0

> <PUBCHEM_ATOM_UDEF_STEREO_COUNT>
1

> <PUBCHEM_BOND_DEF_STEREO_COUNT>
0

> <PUBCHEM_BOND_UDEF_STEREO_COUNT>
0

> <PUBCHEM_ISOTOPIC_ATOM_COUNT>
0

> <PUBCHEM_COMPONENT_COUNT>
1

> <PUBCHEM_CACTVS_TAUTO_COUNT>
3

> <PUBCHEM_CONFORMER_ID>
000521C200000002

> <PUBCHEM_MMFF94_ENERGY>
63.4824

> <PUBCHEM_FEATURE_SELFOVERLAP>
50.792

> <PUBCHEM_SHAPE_FINGERPRINT>
10411042 1 15383870959013416093
10498660 4 18335702693666548188
10608611 8 18411978035809698480
10967382 1 18409729573111502315
11132069 177 18411131424930974049
11543360 7 16343687851124639589
11578080 2 13325146752206047282
11806522 49 18410290341838722343
12011746 2 18411138060407513700
12032990 46 18411422782653728589
12236239 1 17458060461140266632
12403259 226 18194396693759817462
12403814 3 17313377941985930533
12670546 56 16153695501582888005
13140716 1 18049155871817236833
13224815 77 18410291384909178689
13296908 3 18341612581513452405
13583140 156 16515406308591172153
13862211 1 18336820974850014251
14022347 108 18261120659817807386
14178342 30 18049430453603981256
14787075 74 18341889757402213409
14790565 3 18336838566630370501
15196674 1 18410011000848847461
15375358 24 18411979187076977802
15536298 74 18272088270855926335
15848702 151 17632024039582770119
16945 1 18338234976266432683
18186145 218 18271248205328077857
19591789 44 18338235951498802663
200 152 17704070676995413379
20028762 73 18127975415797652015
20510252 161 18342739585322284169
20645477 70 17917718959275000462
20905425 154 18051975814020826366
21029758 11 18413105082931894465
21249577 43 18410292497548327425
21267235 1 18409738347745830619
2334 1 18410290289861271299
23402539 116 18341320167239325166
23463225 33 18334573521031289217
23557571 272 18343308054345214156
23559900 14 18340768127162296582
2748010 2 18410856516843142999
2871803 45 18408600332173816703
3286 77 17346317051359518090
34934 24 18410287042729150766
350125 39 18192993717081063402
4072396 5 18115850954642063163
43471831 8 18261950730983469819
474 4 16734121222298334364
495365 180 17275094059920154594
4990 188 18130794408274125758
5104073 3 18338797814888224395
537710 114 18408045125624677213
633830 44 18200311009586616333
69090 78 18202559601075834847
7097593 13 17031613548893939171
7364860 26 18268430324551600081
9709674 26 18340772623413001614

> <PUBCHEM_SHAPE_MULTIPOLES>
383.13
8.43
2.29
0.91
2.82
0.31
-0.11
0.17
-0.07
0.21
0.13
-1.04
-0.06
0.41

> <PUBCHEM_SHAPE_SELFOVERLAP>
836.908

> <PUBCHEM_SHAPE_VOLUME>
207.4

> <PUBCHEM_COORDINATE_TYPE>
2
5
10

$$$$
