25201070
  -OEChem-10012005013D

 23 24  0     1  0  0  0  0  0999 V2000
    0.6962    3.1495    0.1421 O   0  0  0  0  0  0  0  0  0  0  0  0
   -3.7635    0.3954   -0.4618 O   0  0  0  0  0  0  0  0  0  0  0  0
    3.1825   -0.8435    1.0453 O   0  5  0  0  0  0  0  0  0  0  0  0
    3.4942   -1.2269   -1.1842 O   0  0  0  0  0  0  0  0  0  0  0  0
   -1.1794    1.7528   -0.0771 N   0  0  0  0  0  0  0  0  0  0  0  0
    0.8860    0.7116    0.4295 C   0  0  1  0  0  0  0  0  0  0  0  0
   -0.2288   -0.2847    0.2845 C   0  0  0  0  0  0  0  0  0  0  0  0
   -1.4163    0.3851   -0.0021 C   0  0  0  0  0  0  0  0  0  0  0  0
    2.0261    0.4929   -0.5500 C   0  0  0  0  0  0  0  0  0  0  0  0
    0.1688    2.0476    0.1534 C   0  0  0  0  0  0  0  0  0  0  0  0
   -0.2146   -1.6616    0.4101 C   0  0  0  0  0  0  0  0  0  0  0  0
   -2.6176   -0.2712   -0.1803 C   0  0  0  0  0  0  0  0  0  0  0  0
   -1.4186   -2.3513    0.2340 C   0  0  0  0  0  0  0  0  0  0  0  0
   -2.6095   -1.6617   -0.0590 C   0  0  0  0  0  0  0  0  0  0  0  0
    2.9945   -0.6340   -0.1844 C   0  0  0  0  0  0  0  0  0  0  0  0
    1.2217    0.7345    1.4728 H   0  0  0  0  0  0  0  0  0  0  0  0
    2.6387    1.4021   -0.6121 H   0  0  0  0  0  0  0  0  0  0  0  0
    1.6333    0.3204   -1.5612 H   0  0  0  0  0  0  0  0  0  0  0  0
   -1.8979    2.4368   -0.2826 H   0  0  0  0  0  0  0  0  0  0  0  0
    0.6935   -2.2043    0.6443 H   0  0  0  0  0  0  0  0  0  0  0  0
   -1.4366   -3.4341    0.3270 H   0  0  0  0  0  0  0  0  0  0  0  0
   -3.5267   -2.2312   -0.1886 H   0  0  0  0  0  0  0  0  0  0  0  0
   -4.4883   -0.2476   -0.5478 H   0  0  0  0  0  0  0  0  0  0  0  0
  1 10  2  0  0  0  0
  2 12  1  0  0  0  0
  2 23  1  0  0  0  0
  3 15  1  0  0  0  0
  4 15  2  0  0  0  0
  5  8  1  0  0  0  0
  5 10  1  0  0  0  0
  5 19  1  0  0  0  0
  6  7  1  0  0  0  0
  6  9  1  0  0  0  0
  6 10  1  0  0  0  0
  6 16  1  0  0  0  0
  7  8  2  0  0  0  0
  7 11  1  0  0  0  0
  8 12  1  0  0  0  0
  9 15  1  0  0  0  0
  9 17  1  0  0  0  0
  9 18  1  0  0  0  0
 11 13  2  0  0  0  0
 11 20  1  0  0  0  0
 12 14  2  0  0  0  0
 13 14  1  0  0  0  0
 13 21  1  0  0  0  0
 14 22  1  0  0  0  0
M  CHG  1   3  -1
M  END
> <PUBCHEM_COMPOUND_CID>
25201070

> <PUBCHEM_CONFORMER_RMSD>
0.6

> <PUBCHEM_CONFORMER_DIVERSEORDER>
1
2
4
5
3
6

> <PUBCHEM_MMFF94_PARTIAL_CHARGES>
20
1 -0.57
10 0.57
11 -0.15
12 0.08
13 -0.15
14 -0.15
15 0.91
19 0.37
2 -0.53
20 0.15
21 0.15
22 0.15
23 0.45
3 -0.9
4 -0.9
5 -0.55
6 0.2
7 -0.14
8 0.12
9 -0.11

> <PUBCHEM_EFFECTIVE_ROTOR_COUNT>
2.4

> <PUBCHEM_PHARMACOPHORE_FEATURES>
8
1 1 acceptor
1 2 donor
1 3 acceptor
1 4 acceptor
1 5 donor
3 3 4 15 anion
5 5 6 7 8 10 rings
6 7 8 11 12 13 14 rings

> <PUBCHEM_HEAVY_ATOM_COUNT>
15

> <PUBCHEM_ATOM_DEF_STEREO_COUNT>
0

> <PUBCHEM_ATOM_UDEF_STEREO_COUNT>
1

> <PUBCHEM_BOND_DEF_STEREO_COUNT>
0

> <PUBCHEM_BOND_UDEF_STEREO_COUNT>
0

> <PUBCHEM_ISOTOPIC_ATOM_COUNT>
0

> <PUBCHEM_COMPONENT_COUNT>
1

> <PUBCHEM_CACTVS_TAUTO_COUNT>
22

> <PUBCHEM_CONFORMER_ID>
018089AE00000001

> <PUBCHEM_MMFF94_ENERGY>
38.8227

> <PUBCHEM_FEATURE_SELFOVERLAP>
40.741

> <PUBCHEM_SHAPE_FINGERPRINT>
10130415 120 18335417975957542682
10967382 1 18337951186518763779
11578080 2 17098580640766838700
11680986 33 18267864080399967281
12524768 44 17831575749295760315
13140716 1 18337953510312141299
13380535 21 17903649810312238545
14648413 74 18121498217855174193
14911166 2 18409442579581877511
15279308 128 18338232670111737413
15848700 24 18272643545713268023
16752209 62 18191020106145701396
16945 1 18410293584053831571
17990270 104 18196372743524589926
193761 8 18049439545901546801
19591789 44 17261046424021622545
20510252 161 18198901414326550168
20645476 183 17531259369332843998
20645477 70 17907855459590307047
21501502 16 18123189279792225063
22802520 49 18119814870022083195
2334 1 18121216751610653947
23402539 116 18270949151071388950
23552423 10 17974006455329477411
23559900 14 18412543198567816190
2748010 2 18191861451874425963
7364860 26 17981608474497811112
74978 22 18338516468744850403
81228 2 18269845215907080856

> <PUBCHEM_SHAPE_MULTIPOLES>
280.23
4.94
2.61
0.79
0.9
1.18
-0.02
-2.04
-0.92
0.03
0.17
0.42
-0.17
0.29

> <PUBCHEM_SHAPE_SELFOVERLAP>
609.113

> <PUBCHEM_SHAPE_VOLUME>
154

> <PUBCHEM_COORDINATE_TYPE>
2
5
10

$$$$
