129887737
  -OEChem-10012005283D

 47 50  0     1  0  0  0  0  0999 V2000
    0.1676   -0.5950    1.2298 O   0  0  0  0  0  0  0  0  0  0  0  0
   -0.6687   -3.7541   -0.9037 O   0  0  0  0  0  0  0  0  0  0  0  0
    1.2446   -4.3296    0.2171 O   0  0  0  0  0  0  0  0  0  0  0  0
   -5.5915    0.6279    0.1460 O   0  0  0  0  0  0  0  0  0  0  0  0
    3.4344    2.5205   -1.3808 O   0  0  0  0  0  0  0  0  0  0  0  0
   -4.7037    3.2610    0.0864 O   0  0  0  0  0  0  0  0  0  0  0  0
    5.6883    2.2134    0.2163 O   0  0  0  0  0  0  0  0  0  0  0  0
   -0.4255   -1.4301   -0.8996 C   0  0  2  0  0  0  0  0  0  0  0  0
    0.9061   -2.0358   -0.5323 C   0  0  1  0  0  0  0  0  0  0  0  0
   -0.9790   -0.9860    0.4558 C   0  0  2  0  0  0  0  0  0  0  0  0
    1.3111   -1.3378    0.7635 C   0  0  1  0  0  0  0  0  0  0  0  0
   -1.1741   -2.5737   -1.5374 C   0  0  0  0  0  0  0  0  0  0  0  0
    0.5502   -3.4926   -0.3394 C   0  0  0  0  0  0  0  0  0  0  0  0
   -1.9744    0.1439    0.3564 C   0  0  0  0  0  0  0  0  0  0  0  0
    2.4779   -0.3892    0.6144 C   0  0  0  0  0  0  0  0  0  0  0  0
   -3.3400   -0.1330    0.2944 C   0  0  0  0  0  0  0  0  0  0  0  0
   -1.5288    1.4654    0.3274 C   0  0  0  0  0  0  0  0  0  0  0  0
    2.4238    0.6407   -0.3248 C   0  0  0  0  0  0  0  0  0  0  0  0
    3.6085   -0.5428    1.4167 C   0  0  0  0  0  0  0  0  0  0  0  0
   -4.2602    0.9114    0.2035 C   0  0  0  0  0  0  0  0  0  0  0  0
    3.5003    1.5172   -0.4616 C   0  0  0  0  0  0  0  0  0  0  0  0
   -2.4489    2.5098    0.2363 C   0  0  0  0  0  0  0  0  0  0  0  0
    4.6852    0.3335    1.2796 C   0  0  0  0  0  0  0  0  0  0  0  0
   -3.8146    2.2328    0.1745 C   0  0  0  0  0  0  0  0  0  0  0  0
    4.6310    1.3636    0.3406 C   0  0  0  0  0  0  0  0  0  0  0  0
   -5.9627   -0.7489    0.1811 C   0  0  0  0  0  0  0  0  0  0  0  0
    2.2430    2.6076   -2.1604 C   0  0  0  0  0  0  0  0  0  0  0  0
   -0.3237   -0.5810   -1.5843 H   0  0  0  0  0  0  0  0  0  0  0  0
    1.6435   -1.9855   -1.3405 H   0  0  0  0  0  0  0  0  0  0  0  0
   -1.4375   -1.8232    0.9992 H   0  0  0  0  0  0  0  0  0  0  0  0
    1.5412   -2.0724    1.5446 H   0  0  0  0  0  0  0  0  0  0  0  0
   -2.2565   -2.5160   -1.3946 H   0  0  0  0  0  0  0  0  0  0  0  0
   -0.9640   -2.6508   -2.6095 H   0  0  0  0  0  0  0  0  0  0  0  0
   -3.6274   -1.1786    0.3220 H   0  0  0  0  0  0  0  0  0  0  0  0
   -0.4710    1.7071    0.3685 H   0  0  0  0  0  0  0  0  0  0  0  0
    1.5235    0.7221   -0.9206 H   0  0  0  0  0  0  0  0  0  0  0  0
    3.6656   -1.3401    2.1528 H   0  0  0  0  0  0  0  0  0  0  0  0
   -2.0879    3.5346    0.2132 H   0  0  0  0  0  0  0  0  0  0  0  0
    5.5600    0.2024    1.9110 H   0  0  0  0  0  0  0  0  0  0  0  0
   -4.2154    4.1021    0.0789 H   0  0  0  0  0  0  0  0  0  0  0  0
    6.3785    1.9551    0.8510 H   0  0  0  0  0  0  0  0  0  0  0  0
   -7.0556   -0.7890    0.1246 H   0  0  0  0  0  0  0  0  0  0  0  0
   -5.6767   -1.2203    1.1275 H   0  0  0  0  0  0  0  0  0  0  0  0
   -5.5802   -1.2928   -0.6894 H   0  0  0  0  0  0  0  0  0  0  0  0
    2.3645    3.4581   -2.8393 H   0  0  0  0  0  0  0  0  0  0  0  0
    1.3675    2.8220   -1.5379 H   0  0  0  0  0  0  0  0  0  0  0  0
    2.1036    1.7198   -2.7868 H   0  0  0  0  0  0  0  0  0  0  0  0
  1 10  1  0  0  0  0
  1 11  1  0  0  0  0
  2 12  1  0  0  0  0
  2 13  1  0  0  0  0
  3 13  2  0  0  0  0
  4 20  1  0  0  0  0
  4 26  1  0  0  0  0
  5 21  1  0  0  0  0
  5 27  1  0  0  0  0
  6 24  1  0  0  0  0
  6 40  1  0  0  0  0
  7 25  1  0  0  0  0
  7 41  1  0  0  0  0
  8  9  1  0  0  0  0
  8 10  1  0  0  0  0
  8 12  1  0  0  0  0
  8 28  1  0  0  0  0
  9 11  1  0  0  0  0
  9 13  1  0  0  0  0
  9 29  1  0  0  0  0
 10 14  1  0  0  0  0
 10 30  1  0  0  0  0
 11 15  1  0  0  0  0
 11 31  1  0  0  0  0
 12 32  1  0  0  0  0
 12 33  1  0  0  0  0
 14 16  2  0  0  0  0
 14 17  1  0  0  0  0
 15 18  2  0  0  0  0
 15 19  1  0  0  0  0
 16 20  1  0  0  0  0
 16 34  1  0  0  0  0
 17 22  2  0  0  0  0
 17 35  1  0  0  0  0
 18 21  1  0  0  0  0
 18 36  1  0  0  0  0
 19 23  2  0  0  0  0
 19 37  1  0  0  0  0
 20 24  2  0  0  0  0
 21 25  2  0  0  0  0
 22 24  1  0  0  0  0
 22 38  1  0  0  0  0
 23 25  1  0  0  0  0
 23 39  1  0  0  0  0
 26 42  1  0  0  0  0
 26 43  1  0  0  0  0
 26 44  1  0  0  0  0
 27 45  1  0  0  0  0
 27 46  1  0  0  0  0
 27 47  1  0  0  0  0
M  END
> <PUBCHEM_COMPOUND_CID>
129887737

> <PUBCHEM_CONFORMER_RMSD>
0.8

> <PUBCHEM_CONFORMER_DIVERSEORDER>
2
173
91
304
180
81
240
297
153
232
146
234
26
308
58
77
181
31
147
225
150
73
159
247
18
125
307
275
284
239
49
19
248
76
95
24
149
157
25
214
258
167
141
131
30
306
61
194
84
246
192
97
134
177
183
72
265
106
299
264
33
305
295
184
22
145
82
135
20
186
140
254
303
222
148
158
263
136
126
249
52
174
7
178
224
100
144
229
154
226
260
114
78
293
28
243
179
70
291
161
230
104
138
54
176
217
276
163
235
34
53
266
195
215
267
191
85
166
171
268
16
300
202
21
102
241
99
133
286
46
67
55
143
302
252
96
282
294
75
113
152
142
199
296
38
120
88
259
285
13
287
40
289
83
280
182
86
253
292
11
69
124
272
47
87
233
68
298
39
185
57
244
262
41
273
218
92
236
200
15
116
27
250
169
206
170
162
190
105
51
130
203
279
227
251
90
109
193
119
129
108
278
216
93
123
151
56
121
12
79
172
103
213
208
32
257
168
301
29
118
71
137
160
288
261
156
59
196
66
132
219
238
110
271
62
212
139
60
237
223
290
256
198
270
197
165
201
164
107
115
209
63
89
44
283
1
23
155
42
112
101
127
207
228
48
269
64
36
255
43
65
281
204
128
10
245
189
220
35
122
205
211
187
98
242
210
94
74
221
37
117
188
231
8
274
3
80
175
111
6
277
14
45
50
9
17
4
5

> <PUBCHEM_MMFF94_PARTIAL_CHARGES>
34
1 -0.56
10 0.42
11 0.42
12 0.28
13 0.66
14 -0.14
15 -0.14
16 -0.15
17 -0.15
18 -0.15
19 -0.15
2 -0.43
20 0.08
21 0.08
22 -0.15
23 -0.15
24 0.08
25 0.08
26 0.28
27 0.28
3 -0.57
34 0.15
35 0.15
36 0.15
37 0.15
38 0.15
39 0.15
4 -0.36
40 0.45
41 0.45
5 -0.36
6 -0.53
7 -0.53
9 0.06

> <PUBCHEM_EFFECTIVE_ROTOR_COUNT>
5

> <PUBCHEM_PHARMACOPHORE_FEATURES>
10
1 1 acceptor
1 3 acceptor
1 4 acceptor
1 5 acceptor
1 6 donor
1 7 donor
5 1 8 9 10 11 rings
5 2 8 9 12 13 rings
6 14 16 17 20 22 24 rings
6 15 18 19 21 23 25 rings

> <PUBCHEM_HEAVY_ATOM_COUNT>
27

> <PUBCHEM_ATOM_DEF_STEREO_COUNT>
0

> <PUBCHEM_ATOM_UDEF_STEREO_COUNT>
4

> <PUBCHEM_BOND_DEF_STEREO_COUNT>
0

> <PUBCHEM_BOND_UDEF_STEREO_COUNT>
0

> <PUBCHEM_ISOTOPIC_ATOM_COUNT>
0

> <PUBCHEM_COMPONENT_COUNT>
1

> <PUBCHEM_CACTVS_TAUTO_COUNT>
18

> <PUBCHEM_CONFORMER_ID>
07BDEDF900000002

> <PUBCHEM_MMFF94_ENERGY>
87.9043

> <PUBCHEM_FEATURE_SELFOVERLAP>
51.193

> <PUBCHEM_SHAPE_FINGERPRINT>
10090160 65 18408598167621328983
10906281 52 18338251414208646065
1100329 8 18124593338966599377
11488393 25 17487922037220725751
11578080 2 16589694661877699765
12160290 23 17842012253458433970
12173636 292 18268704086072703614
12403259 118 18334005065156894977
12403259 327 16950572025749507856
12422481 6 18044081368078851752
12633257 1 16226047838168488920
12788726 201 17905896129537047622
13149001 5 17130697456490494664
133893 2 17841457846105163970
13583140 156 17241027834958322179
13965767 371 18192967389068728520
14294032 229 18201159944628047699
1454969 45 18342451591465971607
14767858 380 18271228530926953375
14790565 3 18341896333255840513
14955137 171 17837488553616720326
15131766 46 15504360394971303844
15849732 13 18335419037700856946
17980427 23 18186241715033420989
18681886 176 18410290307458372528
18785283 64 18266455395836816434
20715895 44 17829036616503282501
20739085 24 18188207577414757078
21033648 29 18271793636753939152
21049683 271 17834129541361817958
21524375 3 18408604764284641240
22113638 7 18335983185154277236
22149856 69 18270700688389553249
23227448 37 18128531768073962792
23366157 5 18119254956642494011
23557571 272 17843407538525435440
23558518 356 18336824299055111086
23559900 14 17980478958618869363
23598288 3 17976264861014529798
245318 6 17678195960106860388
3493558 16 17623566445580971136
350125 39 18270400486348531530
474 4 18040999548465161856
5104073 3 18123756357815834755
6287921 2 18124607383546528813
67856867 119 18267019445333052835
7064713 232 18411410700979933416
7288768 16 16591126505211848952
7808743 9 18269550697362670536
9981440 41 18408890641761196667

> <PUBCHEM_SHAPE_MULTIPOLES>
514.56
10.75
4.36
1.27
4.58
2.9
-0.42
-8.98
2.18
-0.01
-1.54
-1.14
-0.17
-1.37

> <PUBCHEM_SHAPE_SELFOVERLAP>
1132.283

> <PUBCHEM_SHAPE_VOLUME>
280.7

> <PUBCHEM_COORDINATE_TYPE>
2
5
10

$$$$
