44256635
  -OEChem-10012006383D

 60 63  0     1  0  0  0  0  0999 V2000
   -1.7310   -1.0516   -0.0235 O   0  0  0  0  0  0  0  0  0  0  0  0
   -1.2793    0.3388    1.8127 O   0  0  0  0  0  0  0  0  0  0  0  0
   -4.1242   -3.7996   -0.4911 O   0  0  0  0  0  0  0  0  0  0  0  0
   -5.3444   -2.2388    1.6119 O   0  0  0  0  0  0  0  0  0  0  0  0
   -3.9814    0.1574    1.1870 O   0  0  0  0  0  0  0  0  0  0  0  0
   -0.6152   -2.6751   -2.2140 O   0  0  0  0  0  0  0  0  0  0  0  0
    1.7888    1.7846    0.3353 O   0  3  0  0  0  0  0  0  0  0  0  0
   -0.1171   -0.4245   -2.2376 O   0  0  0  0  0  0  0  0  0  0  0  0
    3.0622   -2.2154    2.7810 O   0  0  0  0  0  0  0  0  0  0  0  0
    6.3738    0.4178    0.6059 O   0  0  0  0  0  0  0  0  0  0  0  0
   -3.3245    5.1638   -1.3500 O   0  0  0  0  0  0  0  0  0  0  0  0
    3.8991   -1.5950   -2.9347 O   0  0  0  0  0  0  0  0  0  0  0  0
    2.5182    0.1902   -2.6589 O   0  0  0  0  0  0  0  0  0  0  0  0
   -3.7091   -2.4816   -0.1418 C   0  0  1  0  0  0  0  0  0  0  0  0
   -3.9430   -2.2553    1.3541 C   0  0  1  0  0  0  0  0  0  0  0  0
   -2.2218   -2.3152   -0.4834 C   0  0  1  0  0  0  0  0  0  0  0  0
   -3.3098   -0.9414    1.8110 C   0  0  1  0  0  0  0  0  0  0  0  0
   -1.8400   -0.9018    1.3939 C   0  0  1  0  0  0  0  0  0  0  0  0
   -1.9815   -2.3806   -1.9882 C   0  0  0  0  0  0  0  0  0  0  0  0
    0.0509    0.4356    1.4748 C   0  0  0  0  0  0  0  0  0  0  0  0
    0.5358    1.5685    0.6241 C   0  0  0  0  0  0  0  0  0  0  0  0
    0.9792   -0.4230    1.9159 C   0  0  0  0  0  0  0  0  0  0  0  0
    2.3863   -0.2365    1.5810 C   0  0  0  0  0  0  0  0  0  0  0  0
    0.2267   -1.5948   -2.3217 C   0  0  0  0  0  0  0  0  0  0  0  0
    2.7500    0.8718    0.8090 C   0  0  0  0  0  0  0  0  0  0  0  0
   -0.4785    2.5154    0.1048 C   0  0  0  0  0  0  0  0  0  0  0  0
    3.3714   -1.1239    2.0242 C   0  0  0  0  0  0  0  0  0  0  0  0
    1.6351   -2.0826   -2.5596 C   0  0  0  0  0  0  0  0  0  0  0  0
    4.0885    1.0919    0.4821 C   0  0  0  0  0  0  0  0  0  0  0  0
   -1.2759    3.2389    0.9918 C   0  0  0  0  0  0  0  0  0  0  0  0
   -0.6376    2.6820   -1.2709 C   0  0  0  0  0  0  0  0  0  0  0  0
    4.7099   -0.9022    1.6947 C   0  0  0  0  0  0  0  0  0  0  0  0
    5.0679    0.2044    0.9250 C   0  0  0  0  0  0  0  0  0  0  0  0
   -2.2324    4.1287    0.5031 C   0  0  0  0  0  0  0  0  0  0  0  0
   -1.5942    3.5718   -1.7597 C   0  0  0  0  0  0  0  0  0  0  0  0
    2.6885   -1.0177   -2.7155 C   0  0  0  0  0  0  0  0  0  0  0  0
   -2.3915    4.2951   -0.8727 C   0  0  0  0  0  0  0  0  0  0  0  0
   -4.3239   -1.7863   -0.7253 H   0  0  0  0  0  0  0  0  0  0  0  0
   -3.5233   -3.0933    1.9244 H   0  0  0  0  0  0  0  0  0  0  0  0
   -1.6324   -3.1092   -0.0039 H   0  0  0  0  0  0  0  0  0  0  0  0
   -3.4251   -0.8008    2.8907 H   0  0  0  0  0  0  0  0  0  0  0  0
   -1.3244   -1.7345    1.8906 H   0  0  0  0  0  0  0  0  0  0  0  0
   -2.2868   -1.4573   -2.4957 H   0  0  0  0  0  0  0  0  0  0  0  0
   -2.5484   -3.2009   -2.4401 H   0  0  0  0  0  0  0  0  0  0  0  0
   -3.5838   -4.4296    0.0156 H   0  0  0  0  0  0  0  0  0  0  0  0
   -5.4644   -2.0826    2.5641 H   0  0  0  0  0  0  0  0  0  0  0  0
   -3.7272    0.1792    0.2490 H   0  0  0  0  0  0  0  0  0  0  0  0
    0.7149   -1.2479    2.5680 H   0  0  0  0  0  0  0  0  0  0  0  0
    1.9175   -2.7048   -1.7032 H   0  0  0  0  0  0  0  0  0  0  0  0
    1.6277   -2.6793   -3.4783 H   0  0  0  0  0  0  0  0  0  0  0  0
    4.3601    1.9543   -0.1201 H   0  0  0  0  0  0  0  0  0  0  0  0
   -1.1574    3.1301    2.0667 H   0  0  0  0  0  0  0  0  0  0  0  0
   -0.0110    2.1391   -1.9719 H   0  0  0  0  0  0  0  0  0  0  0  0
    5.4770   -1.5922    2.0385 H   0  0  0  0  0  0  0  0  0  0  0  0
   -2.8457    4.6880    1.2044 H   0  0  0  0  0  0  0  0  0  0  0  0
   -1.7107    3.7000   -2.8324 H   0  0  0  0  0  0  0  0  0  0  0  0
    3.8771   -2.7044    2.9872 H   0  0  0  0  0  0  0  0  0  0  0  0
    6.9136   -0.2924    0.9935 H   0  0  0  0  0  0  0  0  0  0  0  0
   -3.7839    5.5768   -0.5986 H   0  0  0  0  0  0  0  0  0  0  0  0
    4.6092   -0.9260   -3.0373 H   0  0  0  0  0  0  0  0  0  0  0  0
  1 16  1  0  0  0  0
  1 18  1  0  0  0  0
  2 18  1  0  0  0  0
  2 20  1  0  0  0  0
  3 14  1  0  0  0  0
  3 45  1  0  0  0  0
  4 15  1  0  0  0  0
  4 46  1  0  0  0  0
  5 17  1  0  0  0  0
  5 47  1  0  0  0  0
  6 19  1  0  0  0  0
  6 24  1  0  0  0  0
  7 21  2  0  0  0  0
  7 25  1  0  0  0  0
  8 24  2  0  0  0  0
  9 27  1  0  0  0  0
  9 57  1  0  0  0  0
 10 33  1  0  0  0  0
 10 58  1  0  0  0  0
 11 37  1  0  0  0  0
 11 59  1  0  0  0  0
 12 36  1  0  0  0  0
 12 60  1  0  0  0  0
 13 36  2  0  0  0  0
 14 15  1  0  0  0  0
 14 16  1  0  0  0  0
 14 38  1  0  0  0  0
 15 17  1  0  0  0  0
 15 39  1  0  0  0  0
 16 19  1  0  0  0  0
 16 40  1  0  0  0  0
 17 18  1  0  0  0  0
 17 41  1  0  0  0  0
 18 42  1  0  0  0  0
 19 43  1  0  0  0  0
 19 44  1  0  0  0  0
 20 21  1  0  0  0  0
 20 22  2  0  0  0  0
 21 26  1  0  0  0  0
 22 23  1  0  0  0  0
 22 48  1  0  0  0  0
 23 25  1  0  0  0  0
 23 27  2  0  0  0  0
 24 28  1  0  0  0  0
 25 29  2  0  0  0  0
 26 30  2  0  0  0  0
 26 31  1  0  0  0  0
 27 32  1  0  0  0  0
 28 36  1  0  0  0  0
 28 49  1  0  0  0  0
 28 50  1  0  0  0  0
 29 33  1  0  0  0  0
 29 51  1  0  0  0  0
 30 34  1  0  0  0  0
 30 52  1  0  0  0  0
 31 35  2  0  0  0  0
 31 53  1  0  0  0  0
 32 33  2  0  0  0  0
 32 54  1  0  0  0  0
 34 37  2  0  0  0  0
 34 55  1  0  0  0  0
 35 37  1  0  0  0  0
 35 56  1  0  0  0  0
M  CHG  1   7   1
M  END
> <PUBCHEM_COMPOUND_CID>
44256635

> <PUBCHEM_CONFORMER_RMSD>
1

> <PUBCHEM_CONFORMER_DIVERSEORDER>
1
219
246
245
28
218
311
106
169
220
95
146
2
251
318
102
101
304
5
159
325
272
270
263
228
156
303
80
253
109
51
335
85
137
288
326
26
287
177
189
56
277
118
334
145
90
273
100
71
75
44
170
299
57
123
7
20
151
280
160
300
203
183
131
21
174
112
291
276
265
290
213
158
176
16
76
45
9
221
297
256
234
229
153
195
216
168
204
46
260
321
47
330
87
242
157
42
94
278
331
138
130
184
317
182
292
194
105
279
244
15
113
314
237
179
312
88
162
152
147
126
115
236
212
240
200
72
275
43
128
110
27
64
58
116
198
180
233
13
262
68
61
243
247
282
135
336
296
62
33
173
59
18
24
322
86
211
107
3
323
225
181
197
63
129
268
136
69
81
241
17
141
79
319
187
222
29
166
332
30
50
294
283
140
315
217
258
74
172
52
31
302
117
266
301
89
298
35
38
205
254
119
114
238
91
11
23
295
257
77
104
40
185
248
39
171
235
14
4
161
320
285
175
186
142
269
271
66
12
188
149
239
93
313
82
120
22
209
49
274
65
281
324
191
178
60
32
306
124
53
259
305
148
122
36
164
19
223
192
329
199
309
226
6
255
293
144
34
84
289
98
230
207
54
8
48
327
143
97
96
307
190
310
41
108
121
232
264
163
261
284
215
10
150
308
267
67
328
208
132
78
70
139
55
286
250
196
193
333
127
202
214
231
103
337
37
133
165
252
111
206
154
83
73
210
92
316
201
249
227
155
99
167
134
25
224
125

> <PUBCHEM_MMFF94_PARTIAL_CHARGES>
51
1 -0.56
10 -0.53
11 -0.53
12 -0.65
13 -0.57
14 0.28
15 0.28
16 0.28
17 0.28
18 0.56
19 0.28
2 -0.36
20 0.09
21 0.85
22 -0.18
23 0.03
24 0.66
25 0.92
26 0.09
27 0.08
28 0.12
29 -0.15
3 -0.68
30 -0.15
31 -0.15
32 -0.15
33 0.08
34 -0.15
35 -0.15
36 0.66
37 0.08
4 -0.68
45 0.4
46 0.4
47 0.4
48 0.15
5 -0.68
51 0.15
52 0.15
53 0.15
54 0.15
55 0.15
56 0.15
57 0.45
58 0.45
59 0.45
6 -0.43
60 0.5
7 -0.87
8 -0.57
9 -0.53

> <PUBCHEM_EFFECTIVE_ROTOR_COUNT>
9.2

> <PUBCHEM_PHARMACOPHORE_FEATURES>
20
1 1 acceptor
1 10 donor
1 11 donor
1 12 acceptor
1 13 acceptor
1 2 acceptor
1 28 anion
1 3 acceptor
1 3 donor
1 4 acceptor
1 4 donor
1 5 acceptor
1 5 donor
1 8 acceptor
1 9 donor
3 12 13 36 anion
6 1 14 15 16 17 18 rings
6 23 25 27 29 32 33 rings
6 26 30 31 34 35 37 rings
6 7 20 21 22 23 25 rings

> <PUBCHEM_HEAVY_ATOM_COUNT>
37

> <PUBCHEM_ATOM_DEF_STEREO_COUNT>
2

> <PUBCHEM_ATOM_UDEF_STEREO_COUNT>
3

> <PUBCHEM_BOND_DEF_STEREO_COUNT>
0

> <PUBCHEM_BOND_UDEF_STEREO_COUNT>
0

> <PUBCHEM_ISOTOPIC_ATOM_COUNT>
0

> <PUBCHEM_COMPONENT_COUNT>
1

> <PUBCHEM_CACTVS_TAUTO_COUNT>
53

> <PUBCHEM_CONFORMER_ID>
02A34D7B00000001

> <PUBCHEM_MMFF94_ENERGY>
103.4613

> <PUBCHEM_FEATURE_SELFOVERLAP>
101.931

> <PUBCHEM_SHAPE_FINGERPRINT>
11421498 54 18043558116460810958
11578080 2 17843704187236870792
11621639 254 18118691152898247612
12156800 1 18117292362477146463
12160290 23 18045809817516616265
12166972 35 17411031235143734359
12422481 6 17703792531193915722
12597179 24 17983850090738465076
12633046 712 17533223205086242771
12788726 201 18121748751976979753
13642711 20 17248101233947013308
13911987 19 17317051561107006760
144659 39 18266456512702009776
14840074 17 18127695052915932816
15444296 8 18337093666244065223
15721738 202 16153709872902188951
1813 80 18267595782314160371
20691752 17 18270980023296942526
20764821 26 17914049798440876580
22182313 1 17916311545868278596
23419403 2 17415013356462190973
23598288 3 18263906770721749242
238 59 17198258864051748788
35225 105 18044086861141173733
469060 322 17416660579573704101
513202 73 18411978040632524298
550186 83 18337409226223349755
6086070 43 18119229904768449199
6669772 16 17619610398459626362

> <PUBCHEM_SHAPE_MULTIPOLES>
685.14
8.91
5.32
3.15
6.51
5.79
-1.74
-3.76
3.74
-8.55
-2.32
1.79
-1.96
1.62

> <PUBCHEM_SHAPE_SELFOVERLAP>
1489.828

> <PUBCHEM_SHAPE_VOLUME>
367.4

> <PUBCHEM_COORDINATE_TYPE>
2
5
10

$$$$
