101629835
  -OEChem-10012004413D

 28 29  0     1  0  0  0  0  0999 V2000
    0.4439    0.4309    0.0840 C   0  0  2  0  0  0  0  0  0  0  0  0
   -0.7129    0.2696    1.0206 C   0  0  1  0  0  0  0  0  0  0  0  0
    0.0243    1.5838    0.9695 C   0  0  0  0  0  0  0  0  0  0  0  0
   -1.9659    0.0345    0.2116 C   0  0  1  0  0  0  0  0  0  0  0  0
   -0.0875    0.3299   -1.3278 C   0  0  0  0  0  0  0  0  0  0  0  0
    1.7407   -0.2594    0.3668 C   0  0  0  0  0  0  0  0  0  0  0  0
   -1.6061    0.5270   -1.2050 C   0  0  0  0  0  0  0  0  0  0  0  0
   -2.3496   -1.4427    0.2092 C   0  0  0  0  0  0  0  0  0  0  0  0
    1.6359   -1.7780    0.1364 C   0  0  0  0  0  0  0  0  0  0  0  0
    2.8771    0.3045   -0.4653 C   0  0  0  0  0  0  0  0  0  0  0  0
   -0.6258   -0.3242    1.9187 H   0  0  0  0  0  0  0  0  0  0  0  0
   -0.4609    2.4410    0.5192 H   0  0  0  0  0  0  0  0  0  0  0  0
    0.6475    1.8396    1.8189 H   0  0  0  0  0  0  0  0  0  0  0  0
   -2.7985    0.6200    0.6169 H   0  0  0  0  0  0  0  0  0  0  0  0
    0.1048   -0.6488   -1.7756 H   0  0  0  0  0  0  0  0  0  0  0  0
    0.3522    1.0923   -1.9791 H   0  0  0  0  0  0  0  0  0  0  0  0
    2.0015   -0.1150    1.4239 H   0  0  0  0  0  0  0  0  0  0  0  0
   -1.8364    1.5970   -1.2851 H   0  0  0  0  0  0  0  0  0  0  0  0
   -2.1590    0.0167   -1.9999 H   0  0  0  0  0  0  0  0  0  0  0  0
   -1.5507   -2.0697   -0.2002 H   0  0  0  0  0  0  0  0  0  0  0  0
   -3.2505   -1.6068   -0.3910 H   0  0  0  0  0  0  0  0  0  0  0  0
   -2.5530   -1.7907    1.2276 H   0  0  0  0  0  0  0  0  0  0  0  0
    0.7993   -2.2061    0.6976 H   0  0  0  0  0  0  0  0  0  0  0  0
    2.9721    1.3852   -0.3133 H   0  0  0  0  0  0  0  0  0  0  0  0
    2.5511   -2.2744    0.4782 H   0  0  0  0  0  0  0  0  0  0  0  0
    1.5044   -2.0345   -0.9189 H   0  0  0  0  0  0  0  0  0  0  0  0
    3.8310   -0.1573   -0.1884 H   0  0  0  0  0  0  0  0  0  0  0  0
    2.7239    0.1351   -1.5367 H   0  0  0  0  0  0  0  0  0  0  0  0
  1  2  1  0  0  0  0
  1  3  1  0  0  0  0
  1  5  1  0  0  0  0
  1  6  1  0  0  0  0
  2  3  1  0  0  0  0
  2  4  1  0  0  0  0
  2 11  1  0  0  0  0
  3 12  1  0  0  0  0
  3 13  1  0  0  0  0
  4  7  1  0  0  0  0
  4  8  1  0  0  0  0
  4 14  1  0  0  0  0
  5  7  1  0  0  0  0
  5 15  1  0  0  0  0
  5 16  1  0  0  0  0
  6  9  1  0  0  0  0
  6 10  1  0  0  0  0
  6 17  1  0  0  0  0
  7 18  1  0  0  0  0
  7 19  1  0  0  0  0
  8 20  1  0  0  0  0
  8 21  1  0  0  0  0
  8 22  1  0  0  0  0
  9 23  1  0  0  0  0
  9 25  1  0  0  0  0
  9 26  1  0  0  0  0
 10 24  1  0  0  0  0
 10 27  1  0  0  0  0
 10 28  1  0  0  0  0
M  END
> <PUBCHEM_COMPOUND_CID>
101629835

> <PUBCHEM_CONFORMER_RMSD>
0.4

> <PUBCHEM_CONFORMER_DIVERSEORDER>
1
4
3
2

> <PUBCHEM_MMFF94_PARTIAL_CHARGES>
9
1 -0.19
11 0.1
12 0.1
13 0.1
2 -0.19
3 -0.2
4 0.09
5 0.09
6 0.09

> <PUBCHEM_EFFECTIVE_ROTOR_COUNT>
1.8

> <PUBCHEM_PHARMACOPHORE_FEATURES>
2
3 6 9 10 hydrophobe
6 1 2 3 4 5 7 rings

> <PUBCHEM_HEAVY_ATOM_COUNT>
10

> <PUBCHEM_ATOM_DEF_STEREO_COUNT>
2

> <PUBCHEM_ATOM_UDEF_STEREO_COUNT>
1

> <PUBCHEM_BOND_DEF_STEREO_COUNT>
0

> <PUBCHEM_BOND_UDEF_STEREO_COUNT>
0

> <PUBCHEM_ISOTOPIC_ATOM_COUNT>
0

> <PUBCHEM_COMPONENT_COUNT>
1

> <PUBCHEM_CACTVS_TAUTO_COUNT>
1

> <PUBCHEM_CONFORMER_ID>
060EBF8B00000001

> <PUBCHEM_MMFF94_ENERGY>
23.5499

> <PUBCHEM_FEATURE_SELFOVERLAP>
10.148

> <PUBCHEM_SHAPE_FINGERPRINT>
10702982 57 17187837619739663601
12423570 1 17749118793756498453
12897270 3 17894347799996225958
13024252 1 13985814753182935808
14128692 85 18189908693068778175
16945 1 18335416876498707725
19837323 101 16226608464291135469
20653085 51 17024876948355692108
20653091 64 17057218232598950559
21040471 1 15793674622640542445
21922407 69 18267322961997225192
23235687 12 17822004277126784086
23552423 10 18263086509240999642
29004967 10 18343011207596142088
369184 2 18339923705962564424
5084963 1 18040721368150054824
528886 8 17385441042177095835

> <PUBCHEM_SHAPE_MULTIPOLES>
205.8
3.28
1.47
1.18
0.85
0.44
0.21
0.93
0.3
0.03
-0.29
-0.25
-0.31
0.06

> <PUBCHEM_SHAPE_SELFOVERLAP>
417.433

> <PUBCHEM_SHAPE_VOLUME>
122

> <PUBCHEM_COORDINATE_TYPE>
2
5
10

$$$$
