5357283
  -OEChem-10012005273D

 27 27  0     0  0  0  0  0  0999 V2000
   -2.8649    1.7643   -0.5259 O   0  0  0  0  0  0  0  0  0  0  0  0
   -4.4189   -0.4685    0.0448 O   0  0  0  0  0  0  0  0  0  0  0  0
    4.1184    1.0956    0.1393 O   0  0  0  0  0  0  0  0  0  0  0  0
    4.0269   -1.1935   -0.1591 O   0  0  0  0  0  0  0  0  0  0  0  0
   -0.2797   -0.7772   -0.0564 C   0  0  0  0  0  0  0  0  0  0  0  0
   -2.2803    0.5592   -0.2767 C   0  0  0  0  0  0  0  0  0  0  0  0
   -0.8901    0.4512   -0.3098 C   0  0  0  0  0  0  0  0  0  0  0  0
   -1.0598   -1.8976    0.2302 C   0  0  0  0  0  0  0  0  0  0  0  0
   -3.0603   -0.5612    0.0098 C   0  0  0  0  0  0  0  0  0  0  0  0
   -2.4500   -1.7896    0.2634 C   0  0  0  0  0  0  0  0  0  0  0  0
    1.1699   -0.8899   -0.0908 C   0  0  0  0  0  0  0  0  0  0  0  0
    2.0357    0.1411    0.0267 C   0  0  0  0  0  0  0  0  0  0  0  0
   -3.0915    2.6184    0.5936 C   0  0  0  0  0  0  0  0  0  0  0  0
    3.4954   -0.1041   -0.0133 C   0  0  0  0  0  0  0  0  0  0  0  0
    5.5492    1.0518    0.1241 C   0  0  0  0  0  0  0  0  0  0  0  0
   -0.3181    1.3413   -0.5569 H   0  0  0  0  0  0  0  0  0  0  0  0
   -0.6020   -2.8631    0.4318 H   0  0  0  0  0  0  0  0  0  0  0  0
   -3.0457   -2.6702    0.4884 H   0  0  0  0  0  0  0  0  0  0  0  0
    1.5573   -1.8996   -0.2105 H   0  0  0  0  0  0  0  0  0  0  0  0
    1.7140    1.1659    0.1744 H   0  0  0  0  0  0  0  0  0  0  0  0
   -2.1431    2.8827    1.0721 H   0  0  0  0  0  0  0  0  0  0  0  0
   -3.7566    2.1373    1.3176 H   0  0  0  0  0  0  0  0  0  0  0  0
   -3.5692    3.5342    0.2347 H   0  0  0  0  0  0  0  0  0  0  0  0
   -4.7905   -1.3414    0.2593 H   0  0  0  0  0  0  0  0  0  0  0  0
    5.9061    0.6676   -0.8362 H   0  0  0  0  0  0  0  0  0  0  0  0
    5.9178    0.4344    0.9489 H   0  0  0  0  0  0  0  0  0  0  0  0
    5.9220    2.0712    0.2548 H   0  0  0  0  0  0  0  0  0  0  0  0
  1  6  1  0  0  0  0
  1 13  1  0  0  0  0
  2  9  1  0  0  0  0
  2 24  1  0  0  0  0
  3 14  1  0  0  0  0
  3 15  1  0  0  0  0
  4 14  2  0  0  0  0
  5  7  2  0  0  0  0
  5  8  1  0  0  0  0
  5 11  1  0  0  0  0
  6  7  1  0  0  0  0
  6  9  2  0  0  0  0
  7 16  1  0  0  0  0
  8 10  2  0  0  0  0
  8 17  1  0  0  0  0
  9 10  1  0  0  0  0
 10 18  1  0  0  0  0
 11 12  2  0  0  0  0
 11 19  1  0  0  0  0
 12 14  1  0  0  0  0
 12 20  1  0  0  0  0
 13 21  1  0  0  0  0
 13 22  1  0  0  0  0
 13 23  1  0  0  0  0
 15 25  1  0  0  0  0
 15 26  1  0  0  0  0
 15 27  1  0  0  0  0
M  END
> <PUBCHEM_COMPOUND_CID>
5357283

> <PUBCHEM_CONFORMER_RMSD>
0.6

> <PUBCHEM_CONFORMER_DIVERSEORDER>
2
11
5
3
7
4
8
1
9
6
10

> <PUBCHEM_MMFF94_PARTIAL_CHARGES>
21
1 -0.36
10 -0.15
11 -0.18
12 -0.14
13 0.28
14 0.71
15 0.28
16 0.15
17 0.15
18 0.15
19 0.15
2 -0.53
20 0.15
24 0.45
3 -0.43
4 -0.57
5 0.03
6 0.08
7 -0.15
8 -0.15
9 0.08

> <PUBCHEM_EFFECTIVE_ROTOR_COUNT>
4

> <PUBCHEM_PHARMACOPHORE_FEATURES>
4
1 1 acceptor
1 2 donor
1 4 acceptor
6 5 6 7 8 9 10 rings

> <PUBCHEM_HEAVY_ATOM_COUNT>
15

> <PUBCHEM_ATOM_DEF_STEREO_COUNT>
0

> <PUBCHEM_ATOM_UDEF_STEREO_COUNT>
0

> <PUBCHEM_BOND_DEF_STEREO_COUNT>
1

> <PUBCHEM_BOND_UDEF_STEREO_COUNT>
0

> <PUBCHEM_ISOTOPIC_ATOM_COUNT>
0

> <PUBCHEM_COMPONENT_COUNT>
1

> <PUBCHEM_CACTVS_TAUTO_COUNT>
3

> <PUBCHEM_CONFORMER_ID>
0051BEE300000002

> <PUBCHEM_MMFF94_ENERGY>
49.5017

> <PUBCHEM_FEATURE_SELFOVERLAP>
20.297

> <PUBCHEM_SHAPE_FINGERPRINT>
10014705 185 18113893840845137125
10608611 8 18412543202235010036
11132069 177 18040434378118981284
12107183 9 17902784159875244050
12173636 292 18410853265431801806
12346645 44 18335137566148799019
12390115 104 18200048239393368409
13081056 2 18413672413556376142
13897977 58 18335142028598473637
14123255 52 18122063092202286025
14325111 11 18409446968859229134
15042514 8 18191593149610827059
15196674 1 18410855426132595692
15219456 202 18272094833561057006
1741750 31 18340205185170912969
17834072 32 18265615385990561821
18186145 218 18336828563830002828
18522853 276 18335421295956836372
20300324 65 18271801333213539359
20510252 161 18413392016663981801
20645477 56 18410293627019244256
20645477 70 17275115994502907958
22182937 141 18270971141599863401
2306618 200 18201728366048070715
23402539 116 18411129273500733111
23557571 272 18271255979757181484
23559900 14 18127971911103824958
245318 6 16521045880562959868
27216 239 18334584512253669617
3545911 37 18411139160636403614
4214541 1 18409729547863996436
474 4 17024034942193780964
5104073 3 18335137553748960690
573450 72 18187912989792291330
77779 3 18409730664703303406
9709674 26 18411705387323597358

> <PUBCHEM_SHAPE_MULTIPOLES>
285.22
9.55
2.13
0.66
11.73
0.8
0.01
3.24
0.42
-1.99
0.29
-0.14
0.07
0.1

> <PUBCHEM_SHAPE_SELFOVERLAP>
588.67

> <PUBCHEM_SHAPE_VOLUME>
164.6

> <PUBCHEM_COORDINATE_TYPE>
2
5
10

$$$$
