5458878
  -OEChem-10012005253D

 41 43  0     0  0  0  0  0  0999 V2000
   -0.0076   -3.0253    0.9658 O   0  0  0  0  0  0  0  0  0  0  0  0
   -6.7129    1.8410   -0.5690 O   0  0  0  0  0  0  0  0  0  0  0  0
    4.8996    0.9980   -0.9711 N   0  0  0  0  0  0  0  0  0  0  0  0
    1.1687   -1.9853   -0.7498 N   0  0  0  0  0  0  0  0  0  0  0  0
    3.7842   -0.6824   -0.0441 C   0  0  0  0  0  0  0  0  0  0  0  0
    3.3795   -2.0460    0.3543 C   0  0  0  0  0  0  0  0  0  0  0  0
    3.1369    0.5329    0.3148 C   0  0  0  0  0  0  0  0  0  0  0  0
    3.8566    1.5717   -0.2796 C   0  0  0  0  0  0  0  0  0  0  0  0
    2.3984   -2.7199   -0.6188 C   0  0  0  0  0  0  0  0  0  0  0  0
    4.8641   -0.3639   -0.8349 C   0  0  0  0  0  0  0  0  0  0  0  0
    2.0043    0.8500    1.0908 C   0  0  0  0  0  0  0  0  0  0  0  0
    3.4989    2.9170   -0.1362 C   0  0  0  0  0  0  0  0  0  0  0  0
    1.6347    2.1913    1.2430 C   0  0  0  0  0  0  0  0  0  0  0  0
    2.3719    3.2073    0.6380 C   0  0  0  0  0  0  0  0  0  0  0  0
    0.0610   -2.2013    0.0595 C   0  0  0  0  0  0  0  0  0  0  0  0
   -1.0744   -1.3022   -0.2939 C   0  0  0  0  0  0  0  0  0  0  0  0
   -3.4021   -0.5252    0.1432 C   0  0  0  0  0  0  0  0  0  0  0  0
   -2.2212   -1.3691    0.3981 C   0  0  0  0  0  0  0  0  0  0  0  0
   -3.2500    0.6615   -0.5549 C   0  0  0  0  0  0  0  0  0  0  0  0
   -4.6413   -0.9353    0.6076 C   0  0  0  0  0  0  0  0  0  0  0  0
   -4.3679    1.4603   -0.7954 C   0  0  0  0  0  0  0  0  0  0  0  0
   -5.7592   -0.1365    0.3670 C   0  0  0  0  0  0  0  0  0  0  0  0
   -5.6225    1.0614   -0.3345 C   0  0  0  0  0  0  0  0  0  0  0  0
    2.9334   -2.0195    1.3567 H   0  0  0  0  0  0  0  0  0  0  0  0
    4.2710   -2.6806    0.4395 H   0  0  0  0  0  0  0  0  0  0  0  0
    2.8393   -2.7926   -1.6190 H   0  0  0  0  0  0  0  0  0  0  0  0
    2.1759   -3.7345   -0.2707 H   0  0  0  0  0  0  0  0  0  0  0  0
    5.6106   -0.9822   -1.3137 H   0  0  0  0  0  0  0  0  0  0  0  0
    5.5909    1.5089   -1.5024 H   0  0  0  0  0  0  0  0  0  0  0  0
    1.4214    0.0735    1.5771 H   0  0  0  0  0  0  0  0  0  0  0  0
    4.0723    3.7087   -0.6068 H   0  0  0  0  0  0  0  0  0  0  0  0
    1.1296   -1.2725   -1.4728 H   0  0  0  0  0  0  0  0  0  0  0  0
    0.7628    2.4416    1.8416 H   0  0  0  0  0  0  0  0  0  0  0  0
    2.0670    4.2424    0.7697 H   0  0  0  0  0  0  0  0  0  0  0  0
   -0.9253   -0.6246   -1.1264 H   0  0  0  0  0  0  0  0  0  0  0  0
   -2.3291   -2.0842    1.2104 H   0  0  0  0  0  0  0  0  0  0  0  0
   -2.2910    1.0228   -0.9123 H   0  0  0  0  0  0  0  0  0  0  0  0
   -4.7639   -1.8664    1.1545 H   0  0  0  0  0  0  0  0  0  0  0  0
   -4.2549    2.3950   -1.3380 H   0  0  0  0  0  0  0  0  0  0  0  0
   -6.7311   -0.4587    0.7311 H   0  0  0  0  0  0  0  0  0  0  0  0
   -7.4954    1.4134   -0.1807 H   0  0  0  0  0  0  0  0  0  0  0  0
  1 15  2  0  0  0  0
  2 23  1  0  0  0  0
  2 41  1  0  0  0  0
  3  8  1  0  0  0  0
  3 10  1  0  0  0  0
  3 29  1  0  0  0  0
  4  9  1  0  0  0  0
  4 15  1  0  0  0  0
  4 32  1  0  0  0  0
  5  6  1  0  0  0  0
  5  7  1  0  0  0  0
  5 10  2  0  0  0  0
  6  9  1  0  0  0  0
  6 24  1  0  0  0  0
  6 25  1  0  0  0  0
  7  8  1  0  0  0  0
  7 11  2  0  0  0  0
  8 12  2  0  0  0  0
  9 26  1  0  0  0  0
  9 27  1  0  0  0  0
 10 28  1  0  0  0  0
 11 13  1  0  0  0  0
 11 30  1  0  0  0  0
 12 14  1  0  0  0  0
 12 31  1  0  0  0  0
 13 14  2  0  0  0  0
 13 33  1  0  0  0  0
 14 34  1  0  0  0  0
 15 16  1  0  0  0  0
 16 18  2  0  0  0  0
 16 35  1  0  0  0  0
 17 18  1  0  0  0  0
 17 19  2  0  0  0  0
 17 20  1  0  0  0  0
 18 36  1  0  0  0  0
 19 21  1  0  0  0  0
 19 37  1  0  0  0  0
 20 22  2  0  0  0  0
 20 38  1  0  0  0  0
 21 23  2  0  0  0  0
 21 39  1  0  0  0  0
 22 23  1  0  0  0  0
 22 40  1  0  0  0  0
M  END
> <PUBCHEM_COMPOUND_CID>
5458878

> <PUBCHEM_CONFORMER_RMSD>
0.8

> <PUBCHEM_CONFORMER_DIVERSEORDER>
2
10
15
50
49
33
25
48
18
14
24
32
6
45
21
19
47
27
7
51
29
22
5
28
42
38
52
30
46
17
41
13
20
31
3
35
11
1
16
26
34
37
23
4
12
8
43
40
9
44
36
39

> <PUBCHEM_MMFF94_PARTIAL_CHARGES>
36
1 -0.57
10 -0.3
11 -0.15
12 -0.15
13 -0.15
14 -0.15
15 0.62
16 -0.14
17 0.03
18 -0.18
19 -0.15
2 -0.53
20 -0.15
21 -0.15
22 -0.15
23 0.08
28 0.15
29 0.27
3 0.03
30 0.15
31 0.15
32 0.37
33 0.15
34 0.15
35 0.15
36 0.15
37 0.15
38 0.15
39 0.15
4 -0.73
40 0.15
41 0.45
5 -0.18
6 0.18
8 -0.15
9 0.3

> <PUBCHEM_EFFECTIVE_ROTOR_COUNT>
6

> <PUBCHEM_PHARMACOPHORE_FEATURES>
8
1 1 acceptor
1 2 donor
1 3 cation
1 3 donor
1 4 donor
5 3 5 7 8 10 rings
6 17 19 20 21 22 23 rings
6 7 8 11 12 13 14 rings

> <PUBCHEM_HEAVY_ATOM_COUNT>
23

> <PUBCHEM_ATOM_DEF_STEREO_COUNT>
0

> <PUBCHEM_ATOM_UDEF_STEREO_COUNT>
0

> <PUBCHEM_BOND_DEF_STEREO_COUNT>
1

> <PUBCHEM_BOND_UDEF_STEREO_COUNT>
0

> <PUBCHEM_ISOTOPIC_ATOM_COUNT>
0

> <PUBCHEM_COMPONENT_COUNT>
1

> <PUBCHEM_CACTVS_TAUTO_COUNT>
4

> <PUBCHEM_CONFORMER_ID>
00534BBE00000002

> <PUBCHEM_MMFF94_ENERGY>
44.3559

> <PUBCHEM_FEATURE_SELFOVERLAP>
40.688

> <PUBCHEM_SHAPE_FINGERPRINT>
11595378 159 15864061027945053133
12596602 18 14996576113321058709
12769317 202 18411976944919653811
12778500 126 16878494614758836640
12925494 130 18337669695138326089
13402501 40 18407760330669856397
13878862 14 18191002570042197943
13944108 23 18338524036546480092
14251764 38 18340209592330020233
14464042 87 17774726359290153913
14528608 73 18412821400410474743
14848178 96 18410569604627811049
14931854 50 18270975574190469388
151778 21 18337670931270762180
15183329 4 18342459206042340345
15210252 30 18261117408944867636
15238133 3 18334852849363219634
15322687 12 18411698794226408080
17093844 170 18340763827921522192
1768 85 18269282425199720137
17868525 174 18044079177677088394
20465049 17 18409173212076022922
21033648 29 18336261348831989273
21344244 78 17830712293313592226
21475661 188 18408038524338992975
21860390 5 18201723916504267174
22122407 14 18199760163494944953
221357 26 18342739568121055893
22289505 5 18341613677046779934
23227448 37 18342455984706124623
23559900 14 18413666907260616273
3014063 31 18341050726872065848
3298306 158 18412541037603303777
340366 18 17775002358527252926
474 4 18413672413393372187
5312510 48 18411699847068648593
54672768 99 18337954609866388828
7808743 9 18043536225180600228
8509985 295 18335692807147672578

> <PUBCHEM_SHAPE_MULTIPOLES>
451.63
13.79
3.57
0.98
18.12
0.22
-0.07
6.27
2.57
-3.07
-0.34
-0.25
0.13
1.2

> <PUBCHEM_SHAPE_SELFOVERLAP>
980.097

> <PUBCHEM_SHAPE_VOLUME>
247.1

> <PUBCHEM_COORDINATE_TYPE>
2
5
10

$$$$
