129638838
  -OEChem-10012006503D

 80 83  0     1  0  0  0  0  0999 V2000
    5.2144    2.0123   -0.4140 O   0  0  0  0  0  0  0  0  0  0  0  0
   -0.2616   -0.8834   -0.5967 C   0  0  1  0  0  0  0  0  0  0  0  0
   -0.8031    0.5404   -0.3433 C   0  0  2  0  0  0  0  0  0  0  0  0
   -2.3049    0.6664   -0.6223 C   0  0  1  0  0  0  0  0  0  0  0  0
   -3.0695   -0.3257    0.3140 C   0  0  1  0  0  0  0  0  0  0  0  0
   -4.6295   -0.2234    0.1295 C   0  0  2  0  0  0  0  0  0  0  0  0
    1.2349   -0.6375   -0.2842 C   0  0  2  0  0  0  0  0  0  0  0  0
   -0.9740   -1.8365    0.3734 C   0  0  0  0  0  0  0  0  0  0  0  0
   -2.5045   -1.7677    0.2182 C   0  0  0  0  0  0  0  0  0  0  0  0
   -5.0318    1.2662    0.3780 C   0  0  1  0  0  0  0  0  0  0  0  0
    0.1706    1.4355   -1.1039 C   0  0  0  0  0  0  0  0  0  0  0  0
   -2.7946    2.1081   -0.4252 C   0  0  0  0  0  0  0  0  0  0  0  0
    1.5290    0.7262   -0.9526 C   0  0  0  0  0  0  0  0  0  0  0  0
   -4.3098    2.2330   -0.5669 C   0  0  0  0  0  0  0  0  0  0  0  0
   -5.3650   -1.0923    1.1890 C   0  0  0  0  0  0  0  0  0  0  0  0
   -0.4519   -1.3837   -2.0507 C   0  0  0  0  0  0  0  0  0  0  0  0
    2.2087   -1.7271   -0.7094 C   0  0  1  0  0  0  0  0  0  0  0  0
   -6.5506    1.4885    0.3538 C   0  0  0  0  0  0  0  0  0  0  0  0
   -5.0495   -0.7124   -1.2805 C   0  0  0  0  0  0  0  0  0  0  0  0
   -6.8802   -0.8714    1.2204 C   0  0  0  0  0  0  0  0  0  0  0  0
   -7.2506    0.5985    1.3772 C   0  0  0  0  0  0  0  0  0  0  0  0
    3.6628   -1.2210   -0.8179 C   0  0  0  0  0  0  0  0  0  0  0  0
    2.1468   -2.8980    0.2787 C   0  0  0  0  0  0  0  0  0  0  0  0
    4.2255   -0.6989    0.5127 C   0  0  0  0  0  0  0  0  0  0  0  0
    5.6889   -0.2264    0.3844 C   0  0  2  0  0  0  0  0  0  0  0  0
    6.3177    0.1217    1.7596 C   0  0  0  0  0  0  0  0  0  0  0  0
    5.7811    0.9367   -0.6065 C   0  0  0  0  0  0  0  0  0  0  0  0
    5.6394    1.2813    2.4946 C   0  0  0  0  0  0  0  0  0  0  0  0
    7.8220    0.3887    1.6479 C   0  0  0  0  0  0  0  0  0  0  0  0
    6.5892    0.7021   -1.8575 C   0  0  0  0  0  0  0  0  0  0  0  0
   -0.6625    0.7802    0.7243 H   0  0  0  0  0  0  0  0  0  0  0  0
   -2.4932    0.4064   -1.6685 H   0  0  0  0  0  0  0  0  0  0  0  0
   -2.8588   -0.0012    1.3457 H   0  0  0  0  0  0  0  0  0  0  0  0
    1.3346   -0.4777    0.8002 H   0  0  0  0  0  0  0  0  0  0  0  0
   -0.7130   -1.5898    1.4104 H   0  0  0  0  0  0  0  0  0  0  0  0
   -0.6737   -2.8744    0.2101 H   0  0  0  0  0  0  0  0  0  0  0  0
   -2.7857   -2.2247   -0.7356 H   0  0  0  0  0  0  0  0  0  0  0  0
   -2.9453   -2.3934    1.0021 H   0  0  0  0  0  0  0  0  0  0  0  0
   -4.7041    1.5272    1.3968 H   0  0  0  0  0  0  0  0  0  0  0  0
    0.2033    2.4485   -0.6898 H   0  0  0  0  0  0  0  0  0  0  0  0
   -0.1035    1.5182   -2.1617 H   0  0  0  0  0  0  0  0  0  0  0  0
   -2.3162    2.7716   -1.1551 H   0  0  0  0  0  0  0  0  0  0  0  0
   -2.4976    2.4678    0.5685 H   0  0  0  0  0  0  0  0  0  0  0  0
    1.9649    0.6242   -1.9520 H   0  0  0  0  0  0  0  0  0  0  0  0
    2.2079    1.3361   -0.3491 H   0  0  0  0  0  0  0  0  0  0  0  0
   -4.5993    3.2653   -0.3349 H   0  0  0  0  0  0  0  0  0  0  0  0
   -4.6054    2.0557   -1.6072 H   0  0  0  0  0  0  0  0  0  0  0  0
   -4.9620   -0.8696    2.1859 H   0  0  0  0  0  0  0  0  0  0  0  0
   -5.1807   -2.1581    1.0100 H   0  0  0  0  0  0  0  0  0  0  0  0
    0.1267   -0.8019   -2.7750 H   0  0  0  0  0  0  0  0  0  0  0  0
   -1.4946   -1.3441   -2.3767 H   0  0  0  0  0  0  0  0  0  0  0  0
   -0.1451   -2.4312   -2.1484 H   0  0  0  0  0  0  0  0  0  0  0  0
    1.9664   -2.1112   -1.7054 H   0  0  0  0  0  0  0  0  0  0  0  0
   -6.9581    1.3036   -0.6462 H   0  0  0  0  0  0  0  0  0  0  0  0
   -6.7756    2.5364    0.5878 H   0  0  0  0  0  0  0  0  0  0  0  0
   -6.1172   -0.5717   -1.4700 H   0  0  0  0  0  0  0  0  0  0  0  0
   -4.8539   -1.7828   -1.4034 H   0  0  0  0  0  0  0  0  0  0  0  0
   -4.5217   -0.1916   -2.0830 H   0  0  0  0  0  0  0  0  0  0  0  0
   -7.3109   -1.4437    2.0505 H   0  0  0  0  0  0  0  0  0  0  0  0
   -7.3361   -1.2689    0.3066 H   0  0  0  0  0  0  0  0  0  0  0  0
   -8.3364    0.7175    1.2887 H   0  0  0  0  0  0  0  0  0  0  0  0
   -6.9789    0.9304    2.3872 H   0  0  0  0  0  0  0  0  0  0  0  0
    3.7483   -0.4632   -1.6016 H   0  0  0  0  0  0  0  0  0  0  0  0
    4.2947   -2.0530   -1.1576 H   0  0  0  0  0  0  0  0  0  0  0  0
    2.1043   -2.5695    1.3221 H   0  0  0  0  0  0  0  0  0  0  0  0
    1.2786   -3.5304    0.0835 H   0  0  0  0  0  0  0  0  0  0  0  0
    3.0202   -3.5511    0.1685 H   0  0  0  0  0  0  0  0  0  0  0  0
    3.6068    0.1215    0.8838 H   0  0  0  0  0  0  0  0  0  0  0  0
    4.1884   -1.4928    1.2671 H   0  0  0  0  0  0  0  0  0  0  0  0
    6.2668   -1.0611   -0.0358 H   0  0  0  0  0  0  0  0  0  0  0  0
    6.2047   -0.7670    2.3960 H   0  0  0  0  0  0  0  0  0  0  0  0
    6.0602    1.3830    3.5018 H   0  0  0  0  0  0  0  0  0  0  0  0
    4.5653    1.1176    2.6149 H   0  0  0  0  0  0  0  0  0  0  0  0
    8.2670    0.5158    2.6407 H   0  0  0  0  0  0  0  0  0  0  0  0
    8.0288    1.2956    1.0704 H   0  0  0  0  0  0  0  0  0  0  0  0
    5.7924    2.2385    1.9885 H   0  0  0  0  0  0  0  0  0  0  0  0
    8.3311   -0.4496    1.1608 H   0  0  0  0  0  0  0  0  0  0  0  0
    6.1580   -0.1244   -2.4270 H   0  0  0  0  0  0  0  0  0  0  0  0
    7.6234    0.4749   -1.5878 H   0  0  0  0  0  0  0  0  0  0  0  0
    6.5770    1.6026   -2.4777 H   0  0  0  0  0  0  0  0  0  0  0  0
  1 27  2  0  0  0  0
  2  3  1  0  0  0  0
  2  7  1  0  0  0  0
  2  8  1  0  0  0  0
  2 16  1  0  0  0  0
  3  4  1  0  0  0  0
  3 11  1  0  0  0  0
  3 31  1  0  0  0  0
  4  5  1  0  0  0  0
  4 12  1  0  0  0  0
  4 32  1  0  0  0  0
  5  6  1  0  0  0  0
  5  9  1  0  0  0  0
  5 33  1  0  0  0  0
  6 10  1  0  0  0  0
  6 15  1  0  0  0  0
  6 19  1  0  0  0  0
  7 13  1  0  0  0  0
  7 17  1  0  0  0  0
  7 34  1  0  0  0  0
  8  9  1  0  0  0  0
  8 35  1  0  0  0  0
  8 36  1  0  0  0  0
  9 37  1  0  0  0  0
  9 38  1  0  0  0  0
 10 14  1  0  0  0  0
 10 18  1  0  0  0  0
 10 39  1  0  0  0  0
 11 13  1  0  0  0  0
 11 40  1  0  0  0  0
 11 41  1  0  0  0  0
 12 14  1  0  0  0  0
 12 42  1  0  0  0  0
 12 43  1  0  0  0  0
 13 44  1  0  0  0  0
 13 45  1  0  0  0  0
 14 46  1  0  0  0  0
 14 47  1  0  0  0  0
 15 20  1  0  0  0  0
 15 48  1  0  0  0  0
 15 49  1  0  0  0  0
 16 50  1  0  0  0  0
 16 51  1  0  0  0  0
 16 52  1  0  0  0  0
 17 22  1  0  0  0  0
 17 23  1  0  0  0  0
 17 53  1  0  0  0  0
 18 21  1  0  0  0  0
 18 54  1  0  0  0  0
 18 55  1  0  0  0  0
 19 56  1  0  0  0  0
 19 57  1  0  0  0  0
 19 58  1  0  0  0  0
 20 21  1  0  0  0  0
 20 59  1  0  0  0  0
 20 60  1  0  0  0  0
 21 61  1  0  0  0  0
 21 62  1  0  0  0  0
 22 24  1  0  0  0  0
 22 63  1  0  0  0  0
 22 64  1  0  0  0  0
 23 65  1  0  0  0  0
 23 66  1  0  0  0  0
 23 67  1  0  0  0  0
 24 25  1  0  0  0  0
 24 68  1  0  0  0  0
 24 69  1  0  0  0  0
 25 26  1  0  0  0  0
 25 27  1  0  0  0  0
 25 70  1  0  0  0  0
 26 28  1  0  0  0  0
 26 29  1  0  0  0  0
 26 71  1  0  0  0  0
 27 30  1  0  0  0  0
 28 72  1  0  0  0  0
 28 73  1  0  0  0  0
 28 76  1  0  0  0  0
 29 74  1  0  0  0  0
 29 75  1  0  0  0  0
 29 77  1  0  0  0  0
 30 78  1  0  0  0  0
 30 79  1  0  0  0  0
 30 80  1  0  0  0  0
M  END
> <PUBCHEM_COMPOUND_CID>
129638838

> <PUBCHEM_CONFORMER_RMSD>
1

> <PUBCHEM_CONFORMER_DIVERSEORDER>
2
18
13
7
26
15
9
27
6
20
12
21
5
23
24
14
25
4
19
10
1
3
8
16
22
11
17

> <PUBCHEM_MMFF94_PARTIAL_CHARGES>
4
1 -0.57
25 0.06
27 0.45
30 0.06

> <PUBCHEM_EFFECTIVE_ROTOR_COUNT>
8.2

> <PUBCHEM_PHARMACOPHORE_FEATURES>
8
1 1 acceptor
1 23 hydrophobe
3 26 28 29 hydrophobe
5 17 22 24 25 26 hydrophobe
5 2 3 7 11 13 rings
6 2 3 4 5 8 9 rings
6 4 5 6 10 12 14 rings
6 6 10 15 18 20 21 rings

> <PUBCHEM_HEAVY_ATOM_COUNT>
30

> <PUBCHEM_ATOM_DEF_STEREO_COUNT>
8

> <PUBCHEM_ATOM_UDEF_STEREO_COUNT>
1

> <PUBCHEM_BOND_DEF_STEREO_COUNT>
0

> <PUBCHEM_BOND_UDEF_STEREO_COUNT>
0

> <PUBCHEM_ISOTOPIC_ATOM_COUNT>
0

> <PUBCHEM_COMPONENT_COUNT>
1

> <PUBCHEM_CACTVS_TAUTO_COUNT>
3

> <PUBCHEM_CONFORMER_ID>
07BA21B600000002

> <PUBCHEM_MMFF94_ENERGY>
93.8347

> <PUBCHEM_FEATURE_SELFOVERLAP>
40.688

> <PUBCHEM_SHAPE_FINGERPRINT>
10 15 18187650219139678488
10290309 65 18340205164118719423
10675989 125 16675826911138174661
10906281 52 18187379743606134406
11181472 205 15911659921947207745
11456790 92 18272642412802011562
11578080 2 14044361544750901329
12035758 1 18408327687676220971
12236239 1 16877942741446820166
12422481 6 18114456786899087348
12596602 18 17168143446546182585
12838862 33 18261665984159388837
13540713 4 17972591083491464070
13668630 136 12829487026584468640
14251757 52 16343705417314079360
14251764 18 17967257520051637583
14341114 328 17822007623544741010
14347332 77 10303821955790245246
14461889 52 18334580130912423570
14849402 71 18115881852289365205
15183329 4 18408039628150882620
15510800 12 11819276611934962056
17980427 23 18409169926489248493
1813 80 16226056552208707622
19377110 9 18113616772346525514
2026 5 12684810005120855177
21033648 29 17917698146058331578
21130935 74 18270407084019873483
21792934 111 18263076630631303573
22149856 69 18265635211986368377
22224240 67 18131632283859321967
23559900 14 18335985354529070549
23576562 1 12822708580412096139
24771293 8 18201147871533474956
2838139 119 17917137351951626120
3383291 50 17894635872465359987
34797466 226 16988847154919860404
350125 39 18335146397039455109
4058900 60 13470419854932602557
4093350 32 17417539012007042966
4340502 62 18334016068831555914
44317340 157 17632863010289382814
5104073 3 18191585259391212739
58902169 19 14189570841217194392
59682541 35 18341615940979952475
59682541 52 15051742976006518620
59755656 520 15339119022753926477
86090 222 14057557887818870608
9689198 14 16630531730270983155

> <PUBCHEM_SHAPE_MULTIPOLES>
611.52
20.78
2.25
1.7
8.54
0.29
-0.33
-6.98
-9.68
-0.49
0.18
2.08
-0.21
0.71

> <PUBCHEM_SHAPE_SELFOVERLAP>
1259.493

> <PUBCHEM_SHAPE_VOLUME>
349.7

> <PUBCHEM_COORDINATE_TYPE>
2
5
10

$$$$
