102594506
  -OEChem-10012006532D

197207  0     1  0  0  0  0  0999 V2000
   10.8882    5.6557    0.0000 O   0  0  0  0  0  0  0  0  0  0  0  0
    9.3592    6.8876    0.0000 O   0  0  0  0  0  0  0  0  0  0  0  0
    9.4651   -2.5884    0.0000 O   0  0  0  0  0  0  0  0  0  0  0  0
    7.7331   -2.5884    0.0000 O   0  0  0  0  0  0  0  0  0  0  0  0
    9.4651   -4.5884    0.0000 O   0  0  0  0  0  0  0  0  0  0  0  0
   13.5227    8.7550    0.0000 O   0  0  0  0  0  0  0  0  0  0  0  0
    7.7331   -5.5884    0.0000 O   0  0  0  0  0  0  0  0  0  0  0  0
    6.0010   -4.5884    0.0000 O   0  0  0  0  0  0  0  0  0  0  0  0
   10.3312   -3.0884    0.0000 O   0  0  0  0  0  0  0  0  0  0  0  0
    6.0010   -1.5884    0.0000 O   0  0  0  0  0  0  0  0  0  0  0  0
   15.0202    9.6255    0.0000 O   0  0  0  0  0  0  0  0  0  0  0  0
    6.0010   -5.5884    0.0000 O   0  0  0  0  0  0  0  0  0  0  0  0
   11.1972   -5.5884    0.0000 O   0  0  0  0  0  0  0  0  0  0  0  0
   14.5279    7.0260    0.0000 O   0  0  0  0  0  0  0  0  0  0  0  0
    7.7331   -7.5884    0.0000 O   0  0  0  0  0  0  0  0  0  0  0  0
   12.9292   -4.5884    0.0000 O   0  0  0  0  0  0  0  0  0  0  0  0
   16.5279    7.0319    0.0000 O   0  0  0  0  0  0  0  0  0  0  0  0
   12.9292   -2.5884    0.0000 O   0  0  0  0  0  0  0  0  0  0  0  0
    6.0010   -8.5884    0.0000 O   0  0  0  0  0  0  0  0  0  0  0  0
   17.5227    8.7670    0.0000 O   0  0  0  0  0  0  0  0  0  0  0  0
    4.2690   -7.5884    0.0000 O   0  0  0  0  0  0  0  0  0  0  0  0
   16.0150   11.3605    0.0000 O   0  0  0  0  0  0  0  0  0  0  0  0
    6.8671   -9.0884    0.0000 O   0  0  0  0  0  0  0  0  0  0  0  0
    4.2690   -4.5884    0.0000 O   0  0  0  0  0  0  0  0  0  0  0  0
    4.2690   -8.5884    0.0000 O   0  0  0  0  0  0  0  0  0  0  0  0
    9.4651   -8.5884    0.0000 O   0  0  0  0  0  0  0  0  0  0  0  0
    6.0010  -10.5884    0.0000 O   0  0  0  0  0  0  0  0  0  0  0  0
    9.4651  -10.5884    0.0000 O   0  0  0  0  0  0  0  0  0  0  0  0
    7.7331  -11.5884    0.0000 O   0  0  0  0  0  0  0  0  0  0  0  0
    4.2690  -11.5884    0.0000 O   0  0  0  0  0  0  0  0  0  0  0  0
    2.5369  -10.5884    0.0000 O   0  0  0  0  0  0  0  0  0  0  0  0
    9.4944    3.6085    0.0000 C   0  0  1  0  0  0  0  0  0  0  0  0
   10.3623    3.1118    0.0000 C   0  0  2  0  0  0  0  0  0  0  0  0
   10.3662    2.1118    0.0000 C   0  0  2  0  0  0  0  0  0  0  0  0
    9.6999    4.5811    0.0000 C   0  0  2  0  0  0  0  0  0  0  0  0
    9.5021    1.6085    0.0000 C   0  0  1  0  0  0  0  0  0  0  0  0
    9.4901    0.5669    0.0000 C   0  0  2  0  0  0  0  0  0  0  0  0
   10.6882    4.6880    0.0000 C   0  0  2  0  0  0  0  0  0  0  0  0
   11.0968    3.7817    0.0000 C   0  0  0  0  0  0  0  0  0  0  0  0
    8.6303    3.1051    0.0000 C   0  0  0  0  0  0  0  0  0  0  0  0
    8.6342    2.1051    0.0000 C   0  0  0  0  0  0  0  0  0  0  0  0
    9.2976    5.4837    0.0000 C   0  0  1  0  0  0  0  0  0  0  0  0
   10.3901    0.0426    0.0000 C   0  0  1  0  0  0  0  0  0  0  0  0
   11.2781    1.6085    0.0000 C   0  0  0  0  0  0  0  0  0  0  0  0
   11.2902    0.5669    0.0000 C   0  0  0  0  0  0  0  0  0  0  0  0
   10.0305    6.1465    0.0000 C   0  0  1  0  0  0  0  0  0  0  0  0
    8.6264    4.1051    0.0000 C   0  0  0  0  0  0  0  0  0  0  0  0
    8.5402    0.0426    0.0000 C   0  0  0  0  0  0  0  0  0  0  0  0
   10.4027   -1.0423    0.0000 C   0  0  0  0  0  0  0  0  0  0  0  0
    8.6260    1.0703    0.0000 C   0  0  0  0  0  0  0  0  0  0  0  0
    8.5276   -1.0423    0.0000 C   0  0  0  0  0  0  0  0  0  0  0  0
    9.4651   -1.5884    0.0000 C   0  0  2  0  0  0  0  0  0  0  0  0
    8.3192    5.6904    0.0000 C   0  0  0  0  0  0  0  0  0  0  0  0
   10.5279    7.0140    0.0000 C   0  0  0  0  0  0  0  0  0  0  0  0
   11.5279    7.0170    0.0000 C   0  0  0  0  0  0  0  0  0  0  0  0
    9.6654    7.8396    0.0000 C   0  0  0  0  0  0  0  0  0  0  0  0
   12.0253    7.8845    0.0000 C   0  0  2  0  0  0  0  0  0  0  0  0
    8.5991   -3.0884    0.0000 C   0  0  2  0  0  0  0  0  0  0  0  0
    8.5991   -4.0884    0.0000 C   0  0  1  0  0  0  0  0  0  0  0  0
   13.0253    7.8875    0.0000 C   0  0  0  0  0  0  0  0  0  0  0  0
   11.5228    8.7490    0.0000 C   0  0  0  0  0  0  0  0  0  0  0  0
    7.7331   -4.5884    0.0000 C   0  0  2  0  0  0  0  0  0  0  0  0
    6.8671   -3.0884    0.0000 C   0  0  1  0  0  0  0  0  0  0  0  0
    6.8671   -4.0884    0.0000 C   0  0  1  0  0  0  0  0  0  0  0  0
    6.0010   -2.5884    0.0000 C   0  0  0  0  0  0  0  0  0  0  0  0
   10.3312   -4.0884    0.0000 C   0  0  2  0  0  0  0  0  0  0  0  0
   14.5227    8.7580    0.0000 C   0  0  2  0  0  0  0  0  0  0  0  0
    6.8671   -6.0884    0.0000 C   0  0  2  0  0  0  0  0  0  0  0  0
   11.1972   -4.5884    0.0000 C   0  0  1  0  0  0  0  0  0  0  0  0
   15.0253    7.8935    0.0000 C   0  0  1  0  0  0  0  0  0  0  0  0
    6.8671   -7.0884    0.0000 C   0  0  1  0  0  0  0  0  0  0  0  0
   12.0632   -4.0884    0.0000 C   0  0  1  0  0  0  0  0  0  0  0  0
   16.0253    7.8965    0.0000 C   0  0  2  0  0  0  0  0  0  0  0  0
   11.1972   -2.5884    0.0000 C   0  0  2  0  0  0  0  0  0  0  0  0
   16.0201    9.6285    0.0000 C   0  0  1  0  0  0  0  0  0  0  0  0
   12.0632   -3.0884    0.0000 C   0  0  2  0  0  0  0  0  0  0  0  0
   16.5227    8.7640    0.0000 C   0  0  1  0  0  0  0  0  0  0  0  0
    6.0010   -7.5884    0.0000 C   0  0  2  0  0  0  0  0  0  0  0  0
    5.1350   -6.0884    0.0000 C   0  0  1  0  0  0  0  0  0  0  0  0
    5.1350   -7.0884    0.0000 C   0  0  1  0  0  0  0  0  0  0  0  0
   11.1972   -1.5884    0.0000 C   0  0  0  0  0  0  0  0  0  0  0  0
   16.5176   10.4960    0.0000 C   0  0  0  0  0  0  0  0  0  0  0  0
    4.2690   -5.5884    0.0000 C   0  0  0  0  0  0  0  0  0  0  0  0
    7.7331   -8.5884    0.0000 C   0  0  2  0  0  0  0  0  0  0  0  0
    5.1350   -9.0884    0.0000 C   0  0  2  0  0  0  0  0  0  0  0  0
    8.5991   -9.0884    0.0000 C   0  0  1  0  0  0  0  0  0  0  0  0
    5.1350  -10.0884    0.0000 C   0  0  1  0  0  0  0  0  0  0  0  0
    8.5991  -10.0884    0.0000 C   0  0  2  0  0  0  0  0  0  0  0  0
    6.8671  -10.0884    0.0000 C   0  0  0  0  0  0  0  0  0  0  0  0
    7.7331  -10.5884    0.0000 C   0  0  1  0  0  0  0  0  0  0  0  0
    4.2690  -10.5884    0.0000 C   0  0  2  0  0  0  0  0  0  0  0  0
    3.4030   -9.0884    0.0000 C   0  0  0  0  0  0  0  0  0  0  0  0
    3.4030  -10.0884    0.0000 C   0  0  1  0  0  0  0  0  0  0  0  0
   11.1406    2.7701    0.0000 H   0  0  0  0  0  0  0  0  0  0  0  0
   11.0974    2.5453    0.0000 H   0  0  0  0  0  0  0  0  0  0  0  0
    8.8546    4.4915    0.0000 H   0  0  0  0  0  0  0  0  0  0  0  0
   10.2366    1.1806    0.0000 H   0  0  0  0  0  0  0  0  0  0  0  0
   11.5330    4.7812    0.0000 H   0  0  0  0  0  0  0  0  0  0  0  0
   11.4642    3.2823    0.0000 H   0  0  0  0  0  0  0  0  0  0  0  0
   11.6321    4.0946    0.0000 H   0  0  0  0  0  0  0  0  0  0  0  0
    8.4160    3.6869    0.0000 H   0  0  0  0  0  0  0  0  0  0  0  0
    8.0201    2.9951    0.0000 H   0  0  0  0  0  0  0  0  0  0  0  0
    8.0232    2.2104    0.0000 H   0  0  0  0  0  0  0  0  0  0  0  0
    8.4244    1.5217    0.0000 H   0  0  0  0  0  0  0  0  0  0  0  0
    9.1361    6.0823    0.0000 H   0  0  0  0  0  0  0  0  0  0  0  0
   11.1295   -0.3767    0.0000 H   0  0  0  0  0  0  0  0  0  0  0  0
   11.8902    1.5095    0.0000 H   0  0  0  0  0  0  0  0  0  0  0  0
   11.4804    2.1946    0.0000 H   0  0  0  0  0  0  0  0  0  0  0  0
   11.5060   -0.0143    0.0000 H   0  0  0  0  0  0  0  0  0  0  0  0
   11.8998    0.6801    0.0000 H   0  0  0  0  0  0  0  0  0  0  0  0
    8.9344    4.6433    0.0000 H   0  0  0  0  0  0  0  0  0  0  0  0
    8.0883    4.4131    0.0000 H   0  0  0  0  0  0  0  0  0  0  0  0
    8.3185    3.5670    0.0000 H   0  0  0  0  0  0  0  0  0  0  0  0
    8.3379    0.6287    0.0000 H   0  0  0  0  0  0  0  0  0  0  0  0
    7.9281   -0.0564    0.0000 H   0  0  0  0  0  0  0  0  0  0  0  0
   10.6185   -1.6235    0.0000 H   0  0  0  0  0  0  0  0  0  0  0  0
   11.0123   -0.9291    0.0000 H   0  0  0  0  0  0  0  0  0  0  0  0
    8.9380    1.6060    0.0000 H   0  0  0  0  0  0  0  0  0  0  0  0
    8.0902    1.3823    0.0000 H   0  0  0  0  0  0  0  0  0  0  0  0
    8.3139    0.5345    0.0000 H   0  0  0  0  0  0  0  0  0  0  0  0
    7.9180   -0.9291    0.0000 H   0  0  0  0  0  0  0  0  0  0  0  0
    8.3118   -1.6235    0.0000 H   0  0  0  0  0  0  0  0  0  0  0  0
   10.0027   -1.8974    0.0000 H   0  0  0  0  0  0  0  0  0  0  0  0
    8.4473    6.2970    0.0000 H   0  0  0  0  0  0  0  0  0  0  0  0
    7.7125    5.8185    0.0000 H   0  0  0  0  0  0  0  0  0  0  0  0
    8.1910    5.0838    0.0000 H   0  0  0  0  0  0  0  0  0  0  0  0
   10.6338    7.6249    0.0000 H   0  0  0  0  0  0  0  0  0  0  0  0
    9.9447    7.2243    0.0000 H   0  0  0  0  0  0  0  0  0  0  0  0
   11.4221    6.4061    0.0000 H   0  0  0  0  0  0  0  0  0  0  0  0
   12.1112    6.8067    0.0000 H   0  0  0  0  0  0  0  0  0  0  0  0
   10.2556    7.6498    0.0000 H   0  0  0  0  0  0  0  0  0  0  0  0
    9.8552    8.4298    0.0000 H   0  0  0  0  0  0  0  0  0  0  0  0
    9.0751    8.0294    0.0000 H   0  0  0  0  0  0  0  0  0  0  0  0
   11.4053    7.8826    0.0000 H   0  0  0  0  0  0  0  0  0  0  0  0
    8.5991   -2.4684    0.0000 H   0  0  0  0  0  0  0  0  0  0  0  0
    8.5991   -4.7084    0.0000 H   0  0  0  0  0  0  0  0  0  0  0  0
   12.9195    7.2766    0.0000 H   0  0  0  0  0  0  0  0  0  0  0  0
   13.6086    7.6772    0.0000 H   0  0  0  0  0  0  0  0  0  0  0  0
   12.0588    9.0606    0.0000 H   0  0  0  0  0  0  0  0  0  0  0  0
   11.2112    9.2850    0.0000 H   0  0  0  0  0  0  0  0  0  0  0  0
   10.9868    8.4374    0.0000 H   0  0  0  0  0  0  0  0  0  0  0  0
    7.1962   -4.8984    0.0000 H   0  0  0  0  0  0  0  0  0  0  0  0
    6.8671   -2.4684    0.0000 H   0  0  0  0  0  0  0  0  0  0  0  0
    6.8671   -4.7084    0.0000 H   0  0  0  0  0  0  0  0  0  0  0  0
    5.3905   -2.4807    0.0000 H   0  0  0  0  0  0  0  0  0  0  0  0
    5.7890   -3.1710    0.0000 H   0  0  0  0  0  0  0  0  0  0  0  0
    9.7942   -3.7784    0.0000 H   0  0  0  0  0  0  0  0  0  0  0  0
   14.2111    9.2940    0.0000 H   0  0  0  0  0  0  0  0  0  0  0  0
    5.4641   -4.2784    0.0000 H   0  0  0  0  0  0  0  0  0  0  0  0
    7.4040   -6.3984    0.0000 H   0  0  0  0  0  0  0  0  0  0  0  0
   11.7341   -4.8984    0.0000 H   0  0  0  0  0  0  0  0  0  0  0  0
   14.4053    7.8916    0.0000 H   0  0  0  0  0  0  0  0  0  0  0  0
    5.4641   -1.2784    0.0000 H   0  0  0  0  0  0  0  0  0  0  0  0
    6.8671   -7.7084    0.0000 H   0  0  0  0  0  0  0  0  0  0  0  0
   12.0632   -4.7084    0.0000 H   0  0  0  0  0  0  0  0  0  0  0  0
   16.6453    7.8983    0.0000 H   0  0  0  0  0  0  0  0  0  0  0  0
   10.6603   -2.2784    0.0000 H   0  0  0  0  0  0  0  0  0  0  0  0
   15.7085   10.1645    0.0000 H   0  0  0  0  0  0  0  0  0  0  0  0
   12.6002   -3.3984    0.0000 H   0  0  0  0  0  0  0  0  0  0  0  0
   16.8311    9.3018    0.0000 H   0  0  0  0  0  0  0  0  0  0  0  0
    5.4641   -7.8984    0.0000 H   0  0  0  0  0  0  0  0  0  0  0  0
    5.1350   -5.4684    0.0000 H   0  0  0  0  0  0  0  0  0  0  0  0
    5.1350   -7.7084    0.0000 H   0  0  0  0  0  0  0  0  0  0  0  0
   11.7341   -5.8984    0.0000 H   0  0  0  0  0  0  0  0  0  0  0  0
   14.8395    6.4899    0.0000 H   0  0  0  0  0  0  0  0  0  0  0  0
   11.8172   -1.5884    0.0000 H   0  0  0  0  0  0  0  0  0  0  0  0
   11.1972   -0.9684    0.0000 H   0  0  0  0  0  0  0  0  0  0  0  0
   10.5772   -1.5884    0.0000 H   0  0  0  0  0  0  0  0  0  0  0  0
   16.9937   10.0989    0.0000 H   0  0  0  0  0  0  0  0  0  0  0  0
   16.9913   10.8960    0.0000 H   0  0  0  0  0  0  0  0  0  0  0  0
   13.4662   -4.2784    0.0000 H   0  0  0  0  0  0  0  0  0  0  0  0
   17.1479    7.0338    0.0000 H   0  0  0  0  0  0  0  0  0  0  0  0
    3.6584   -5.4807    0.0000 H   0  0  0  0  0  0  0  0  0  0  0  0
    4.0569   -6.1710    0.0000 H   0  0  0  0  0  0  0  0  0  0  0  0
   13.4662   -2.8984    0.0000 H   0  0  0  0  0  0  0  0  0  0  0  0
   17.8311    9.3048    0.0000 H   0  0  0  0  0  0  0  0  0  0  0  0
    8.2700   -8.2784    0.0000 H   0  0  0  0  0  0  0  0  0  0  0  0
    3.7320   -7.2784    0.0000 H   0  0  0  0  0  0  0  0  0  0  0  0
    5.1350   -8.4684    0.0000 H   0  0  0  0  0  0  0  0  0  0  0  0
    9.1360   -9.3984    0.0000 H   0  0  0  0  0  0  0  0  0  0  0  0
   16.3234   11.8984    0.0000 H   0  0  0  0  0  0  0  0  0  0  0  0
    3.7320   -4.2784    0.0000 H   0  0  0  0  0  0  0  0  0  0  0  0
    5.1350  -10.7084    0.0000 H   0  0  0  0  0  0  0  0  0  0  0  0
    8.5991  -10.7084    0.0000 H   0  0  0  0  0  0  0  0  0  0  0  0
    6.2565   -9.9807    0.0000 H   0  0  0  0  0  0  0  0  0  0  0  0
    6.6550  -10.6710    0.0000 H   0  0  0  0  0  0  0  0  0  0  0  0
    7.1962  -10.8984    0.0000 H   0  0  0  0  0  0  0  0  0  0  0  0
    3.7320  -10.8984    0.0000 H   0  0  0  0  0  0  0  0  0  0  0  0
   10.0021   -8.8984    0.0000 H   0  0  0  0  0  0  0  0  0  0  0  0
    3.1909   -8.5058    0.0000 H   0  0  0  0  0  0  0  0  0  0  0  0
    2.7924   -9.1961    0.0000 H   0  0  0  0  0  0  0  0  0  0  0  0
    2.8660   -9.7784    0.0000 H   0  0  0  0  0  0  0  0  0  0  0  0
    6.0010  -11.2084    0.0000 H   0  0  0  0  0  0  0  0  0  0  0  0
    9.4651  -11.2084    0.0000 H   0  0  0  0  0  0  0  0  0  0  0  0
    7.1962  -11.8984    0.0000 H   0  0  0  0  0  0  0  0  0  0  0  0
    3.7320  -11.8984    0.0000 H   0  0  0  0  0  0  0  0  0  0  0  0
    2.0000  -10.2784    0.0000 H   0  0  0  0  0  0  0  0  0  0  0  0
  1 38  1  0  0  0  0
  1 46  1  0  0  0  0
 46  2  1  6  0  0  0
  2 56  1  0  0  0  0
 52  3  1  1  0  0  0
 58  3  1  1  0  0  0
  4 58  1  0  0  0  0
  4 63  1  0  0  0  0
 59  5  1  6  0  0  0
 66  5  1  6  0  0  0
  6 60  1  0  0  0  0
 67  6  1  6  0  0  0
 62  7  1  1  0  0  0
 68  7  1  1  0  0  0
 64  8  1  6  0  0  0
  8149  1  0  0  0  0
  9 66  1  0  0  0  0
  9 74  1  0  0  0  0
 10 65  1  0  0  0  0
 10153  1  0  0  0  0
 11 67  1  0  0  0  0
 11 75  1  0  0  0  0
 12 68  1  0  0  0  0
 12 79  1  0  0  0  0
 69 13  1  1  0  0  0
 13164  1  0  0  0  0
 70 14  1  1  0  0  0
 14165  1  0  0  0  0
 71 15  1  6  0  0  0
 84 15  1  1  0  0  0
 72 16  1  1  0  0  0
 16171  1  0  0  0  0
 73 17  1  6  0  0  0
 17172  1  0  0  0  0
 76 18  1  6  0  0  0
 18175  1  0  0  0  0
 78 19  1  1  0  0  0
 85 19  1  1  0  0  0
 77 20  1  1  0  0  0
 20176  1  0  0  0  0
 80 21  1  6  0  0  0
 21178  1  0  0  0  0
 22 82  1  0  0  0  0
 22181  1  0  0  0  0
 23 84  1  0  0  0  0
 23 89  1  0  0  0  0
 24 83  1  0  0  0  0
 24182  1  0  0  0  0
 25 85  1  0  0  0  0
 25 92  1  0  0  0  0
 86 26  1  6  0  0  0
 26189  1  0  0  0  0
 87 27  1  6  0  0  0
 27193  1  0  0  0  0
 88 28  1  1  0  0  0
 28194  1  0  0  0  0
 90 29  1  6  0  0  0
 29195  1  0  0  0  0
 91 30  1  1  0  0  0
 30196  1  0  0  0  0
 93 31  1  6  0  0  0
 31197  1  0  0  0  0
 32 33  1  0  0  0  0
 32 35  1  0  0  0  0
 32 40  1  0  0  0  0
 32 47  1  1  0  0  0
 33 34  1  0  0  0  0
 33 39  1  0  0  0  0
 33 94  1  6  0  0  0
 34 36  1  0  0  0  0
 34 44  1  0  0  0  0
 34 95  1  6  0  0  0
 35 38  1  0  0  0  0
 35 42  1  0  0  0  0
 35 96  1  6  0  0  0
 36 37  1  0  0  0  0
 36 41  1  0  0  0  0
 36 97  1  6  0  0  0
 37 43  1  0  0  0  0
 37 48  1  0  0  0  0
 37 50  1  1  0  0  0
 38 39  1  0  0  0  0
 38 98  1  6  0  0  0
 39 99  1  0  0  0  0
 39100  1  0  0  0  0
 40 41  1  0  0  0  0
 40101  1  0  0  0  0
 40102  1  0  0  0  0
 41103  1  0  0  0  0
 41104  1  0  0  0  0
 42 46  1  0  0  0  0
 42 53  1  6  0  0  0
 42105  1  0  0  0  0
 43 45  1  0  0  0  0
 43 49  1  0  0  0  0
 43106  1  6  0  0  0
 44 45  1  0  0  0  0
 44107  1  0  0  0  0
 44108  1  0  0  0  0
 45109  1  0  0  0  0
 45110  1  0  0  0  0
 46 54  1  0  0  0  0
 47111  1  0  0  0  0
 47112  1  0  0  0  0
 47113  1  0  0  0  0
 48 51  1  0  0  0  0
 48114  1  0  0  0  0
 48115  1  0  0  0  0
 49 52  1  0  0  0  0
 49116  1  0  0  0  0
 49117  1  0  0  0  0
 50118  1  0  0  0  0
 50119  1  0  0  0  0
 50120  1  0  0  0  0
 51 52  1  0  0  0  0
 51121  1  0  0  0  0
 51122  1  0  0  0  0
 52123  1  0  0  0  0
 53124  1  0  0  0  0
 53125  1  0  0  0  0
 53126  1  0  0  0  0
 54 55  1  0  0  0  0
 54127  1  0  0  0  0
 54128  1  0  0  0  0
 55 57  1  0  0  0  0
 55129  1  0  0  0  0
 55130  1  0  0  0  0
 56131  1  0  0  0  0
 56132  1  0  0  0  0
 56133  1  0  0  0  0
 57 60  1  0  0  0  0
 57 61  1  1  0  0  0
 57134  1  0  0  0  0
 58 59  1  0  0  0  0
 58135  1  0  0  0  0
 59 62  1  0  0  0  0
 59136  1  0  0  0  0
 60137  1  0  0  0  0
 60138  1  0  0  0  0
 61139  1  0  0  0  0
 61140  1  0  0  0  0
 61141  1  0  0  0  0
 62 64  1  0  0  0  0
 62142  1  0  0  0  0
 63 64  1  0  0  0  0
 63 65  1  1  0  0  0
 63143  1  0  0  0  0
 64144  1  0  0  0  0
 65145  1  0  0  0  0
 65146  1  0  0  0  0
 66 69  1  0  0  0  0
 66147  1  0  0  0  0
 67 70  1  0  0  0  0
 67148  1  0  0  0  0
 68 71  1  0  0  0  0
 68150  1  0  0  0  0
 69 72  1  0  0  0  0
 69151  1  0  0  0  0
 70 73  1  0  0  0  0
 70152  1  0  0  0  0
 71 78  1  0  0  0  0
 71154  1  0  0  0  0
 72 76  1  0  0  0  0
 72155  1  0  0  0  0
 73 77  1  0  0  0  0
 73156  1  0  0  0  0
 74 76  1  0  0  0  0
 74 81  1  1  0  0  0
 74157  1  0  0  0  0
 75 77  1  0  0  0  0
 75 82  1  6  0  0  0
 75158  1  0  0  0  0
 76159  1  0  0  0  0
 77160  1  0  0  0  0
 78 80  1  0  0  0  0
 78161  1  0  0  0  0
 79 80  1  0  0  0  0
 79 83  1  1  0  0  0
 79162  1  0  0  0  0
 80163  1  0  0  0  0
 81166  1  0  0  0  0
 81167  1  0  0  0  0
 81168  1  0  0  0  0
 82169  1  0  0  0  0
 82170  1  0  0  0  0
 83173  1  0  0  0  0
 83174  1  0  0  0  0
 84 86  1  0  0  0  0
 84177  1  0  0  0  0
 85 87  1  0  0  0  0
 85179  1  0  0  0  0
 86 88  1  0  0  0  0
 86180  1  0  0  0  0
 87 91  1  0  0  0  0
 87183  1  0  0  0  0
 88 90  1  0  0  0  0
 88184  1  0  0  0  0
 89 90  1  0  0  0  0
 89185  1  0  0  0  0
 89186  1  0  0  0  0
 90187  1  0  0  0  0
 91 93  1  0  0  0  0
 91188  1  0  0  0  0
 92 93  1  0  0  0  0
 92190  1  0  0  0  0
 92191  1  0  0  0  0
 93192  1  0  0  0  0
M  END
> <PUBCHEM_COMPOUND_CID>
102594506

> <PUBCHEM_COMPOUND_CANONICALIZED>
1

> <PUBCHEM_CACTVS_COMPLEXITY>
2410

> <PUBCHEM_CACTVS_HBOND_ACCEPTOR>
31

> <PUBCHEM_CACTVS_HBOND_DONOR>
17

> <PUBCHEM_CACTVS_ROTATABLE_BOND>
20

> <PUBCHEM_CACTVS_SUBSKEYS>
AAADcfB8PgAAAAAAAAAAAAAAAAAAAaIAAAA0aNEiQAASAGDAAAAAGgAACAAADxSwgAMCCAAABgAAAAAAAAAAAAAAAAAAAAAAAAAREAIAAAAiQAAFAAAHAAHA4PwPgAAAAAAAAADAAAYAACAAAYAADAAAAA==

> <PUBCHEM_IUPAC_OPENEYE_NAME>
(2S,3R,4R,5R,6S)-2-[(2R,3R,4S,5R,6R)-5-hydroxy-4-[(2S,3R,4S,5R,6R)-5-hydroxy-6-(hydroxymethyl)-3,4-bis[[(2S,3R,4S,5R)-3,4,5-trihydroxytetrahydropyran-2-yl]oxy]tetrahydropyran-2-yl]oxy-6-(hydroxymethyl)-2-[[(1S,2S,4S,6R,7S,8R,9S,12S,13S,16S,18S)-6-methoxy-7,9,13-trimethyl-6-[(3R)-3-methyl-4-[(2R,3R,4S,5S,6R)-3,4,5-trihydroxy-6-(hydroxymethyl)tetrahydropyran-2-yl]oxy-butyl]-5-oxapentacyclo[10.8.0.02,9.04,8.013,18]icosan-16-yl]oxy]tetrahydropyran-3-yl]oxy-6-methyl-tetrahydropyran-3,4,5-triol

> <PUBCHEM_IUPAC_CAS_NAME>
(2S,3R,4R,5R,6S)-2-[[(2R,3R,4S,5R,6R)-5-hydroxy-4-[[(2S,3R,4S,5R,6R)-5-hydroxy-6-(hydroxymethyl)-3,4-bis[[(2S,3R,4S,5R)-3,4,5-trihydroxy-2-oxanyl]oxy]-2-oxanyl]oxy]-6-(hydroxymethyl)-2-[[(1S,2S,4S,6R,7S,8R,9S,12S,13S,16S,18S)-6-methoxy-7,9,13-trimethyl-6-[(3R)-3-methyl-4-[[(2R,3R,4S,5S,6R)-3,4,5-trihydroxy-6-(hydroxymethyl)-2-oxanyl]oxy]butyl]-5-oxapentacyclo[10.8.0.02,9.04,8.013,18]eicosan-16-yl]oxy]-3-oxanyl]oxy]-6-methyloxane-3,4,5-triol

> <PUBCHEM_IUPAC_NAME_MARKUP>
(2<I>S</I>,3<I>R</I>,4<I>R</I>,5<I>R</I>,6<I>S</I>)-2-[(2<I>R</I>,3<I>R</I>,4<I>S</I>,5<I>R</I>,6<I>R</I>)-5-hydroxy-4-[(2<I>S</I>,3<I>R</I>,4<I>S</I>,5<I>R</I>,6<I>R</I>)-5-hydroxy-6-(hydroxymethyl)-3,4-bis[[(2<I>S</I>,3<I>R</I>,4<I>S</I>,5<I>R</I>)-3,4,5-trihydroxyoxan-2-yl]oxy]oxan-2-yl]oxy-6-(hydroxymethyl)-2-[[(1<I>S</I>,2<I>S</I>,4<I>S</I>,6<I>R</I>,7<I>S</I>,8<I>R</I>,9<I>S</I>,12<I>S</I>,13<I>S</I>,16<I>S</I>,18<I>S</I>)-6-methoxy-7,9,13-trimethyl-6-[(3<I>R</I>)-3-methyl-4-[(2<I>R</I>,3<I>R</I>,4<I>S</I>,5<I>S</I>,6<I>R</I>)-3,4,5-trihydroxy-6-(hydroxymethyl)oxan-2-yl]oxybutyl]-5-oxapentacyclo[10.8.0.0<SUP>2,9</SUP>.0<SUP>4,8</SUP>.0<SUP>13,18</SUP>]icosan-16-yl]oxy]oxan-3-yl]oxy-6-methyloxane-3,4,5-triol

> <PUBCHEM_IUPAC_NAME>
(2S,3R,4R,5R,6S)-2-[(2R,3R,4S,5R,6R)-5-hydroxy-4-[(2S,3R,4S,5R,6R)-5-hydroxy-6-(hydroxymethyl)-3,4-bis[[(2S,3R,4S,5R)-3,4,5-trihydroxyoxan-2-yl]oxy]oxan-2-yl]oxy-6-(hydroxymethyl)-2-[[(1S,2S,4S,6R,7S,8R,9S,12S,13S,16S,18S)-6-methoxy-7,9,13-trimethyl-6-[(3R)-3-methyl-4-[(2R,3R,4S,5S,6R)-3,4,5-trihydroxy-6-(hydroxymethyl)oxan-2-yl]oxybutyl]-5-oxapentacyclo[10.8.0.02,9.04,8.013,18]icosan-16-yl]oxy]oxan-3-yl]oxy-6-methyloxane-3,4,5-triol

> <PUBCHEM_IUPAC_SYSTEMATIC_NAME>
(2S,3R,4R,5R,6S)-2-[(2R,3R,4S,5R,6R)-6-(hydroxymethyl)-4-[(2S,3R,4S,5R,6R)-6-(hydroxymethyl)-5-oxidanyl-3,4-bis[[(2S,3R,4S,5R)-3,4,5-tris(oxidanyl)oxan-2-yl]oxy]oxan-2-yl]oxy-2-[[(1S,2S,4S,6R,7S,8R,9S,12S,13S,16S,18S)-6-[(3R)-4-[(2R,3R,4S,5S,6R)-6-(hydroxymethyl)-3,4,5-tris(oxidanyl)oxan-2-yl]oxy-3-methyl-butyl]-6-methoxy-7,9,13-trimethyl-5-oxapentacyclo[10.8.0.02,9.04,8.013,18]icosan-16-yl]oxy]-5-oxidanyl-oxan-3-yl]oxy-6-methyl-oxane-3,4,5-triol

> <PUBCHEM_IUPAC_TRADITIONAL_NAME>
(2S,3R,4R,5R,6S)-2-[(2R,3R,4S,5R,6R)-5-hydroxy-4-[(2S,3R,4S,5R,6R)-5-hydroxy-6-methylol-3,4-bis[[(2S,3R,4S,5R)-3,4,5-trihydroxytetrahydropyran-2-yl]oxy]tetrahydropyran-2-yl]oxy-2-[[(1S,2S,4S,6R,7S,8R,9S,12S,13S,16S,18S)-6-methoxy-7,9,13-trimethyl-6-[(3R)-3-methyl-4-[(2R,3R,4S,5S,6R)-3,4,5-trihydroxy-6-methylol-tetrahydropyran-2-yl]oxy-butyl]-5-oxapentacyclo[10.8.0.02,9.04,8.013,18]eicosan-16-yl]oxy]-6-methylol-tetrahydropyran-3-yl]oxy-6-methyl-tetrahydropyran-3,4,5-triol

> <PUBCHEM_IUPAC_INCHI>
InChI=1S/C62H104O31/c1-23(20-81-54-48(78)45(75)41(71)34(17-63)86-54)9-14-62(80-6)24(2)37-33(93-62)16-30-28-8-7-26-15-27(10-12-60(26,4)29(28)11-13-61(30,37)5)85-58-52(92-57-49(79)44(74)38(68)25(3)84-57)51(43(73)35(18-64)87-58)90-59-53(91-56-47(77)40(70)32(67)22-83-56)50(42(72)36(19-65)88-59)89-55-46(76)39(69)31(66)21-82-55/h23-59,63-79H,7-22H2,1-6H3/t23-,24+,25+,26+,27+,28+,29+,30+,31-,32-,33+,34-,35-,36-,37+,38+,39+,40+,41-,42-,43-,44-,45+,46-,47-,48-,49-,50+,51+,52-,53-,54-,55+,56+,57+,58-,59+,60+,61+,62-/m1/s1

> <PUBCHEM_IUPAC_INCHIKEY>
BTWPDEGCCHXZQG-JWPYDJEPSA-N

> <PUBCHEM_XLOGP3_AA>
-2.9

> <PUBCHEM_EXACT_MASS>
1344.656157

> <PUBCHEM_MOLECULAR_FORMULA>
C62H104O31

> <PUBCHEM_MOLECULAR_WEIGHT>
1345.5

> <PUBCHEM_OPENEYE_CAN_SMILES>
CC1C2C(CC3C2(CCC4C3CCC5C4(CCC(C5)OC6C(C(C(C(O6)CO)O)OC7C(C(C(C(O7)CO)O)OC8C(C(C(CO8)O)O)O)OC9C(C(C(CO9)O)O)O)OC2C(C(C(C(O2)C)O)O)O)C)C)OC1(CCC(C)COC1C(C(C(C(O1)CO)O)O)O)OC

> <PUBCHEM_OPENEYE_ISO_SMILES>
C[C@H]1[C@H]2[C@H](C[C@@H]3[C@@]2(CC[C@H]4[C@@H]3CC[C@@H]5[C@@]4(CC[C@@H](C5)O[C@H]6[C@@H]([C@H]([C@@H]([C@H](O6)CO)O)O[C@H]7[C@@H]([C@H]([C@@H]([C@H](O7)CO)O)O[C@H]8[C@@H]([C@H]([C@@H](CO8)O)O)O)O[C@H]9[C@@H]([C@H]([C@@H](CO9)O)O)O)O[C@H]2[C@@H]([C@@H]([C@H]([C@@H](O2)C)O)O)O)C)C)O[C@@]1(CC[C@@H](C)CO[C@H]1[C@@H]([C@H]([C@@H]([C@H](O1)CO)O)O)O)OC

> <PUBCHEM_CACTVS_TPSA>
473

> <PUBCHEM_MONOISOTOPIC_WEIGHT>
1344.656157

> <PUBCHEM_TOTAL_CHARGE>
0

> <PUBCHEM_HEAVY_ATOM_COUNT>
93

> <PUBCHEM_ATOM_DEF_STEREO_COUNT>
40

> <PUBCHEM_ATOM_UDEF_STEREO_COUNT>
0

> <PUBCHEM_BOND_DEF_STEREO_COUNT>
0

> <PUBCHEM_BOND_UDEF_STEREO_COUNT>
0

> <PUBCHEM_ISOTOPIC_ATOM_COUNT>
0

> <PUBCHEM_COMPONENT_COUNT>
1

> <PUBCHEM_CACTVS_TAUTO_COUNT>
-1

> <PUBCHEM_COORDINATE_TYPE>
1
5
255

> <PUBCHEM_BONDANNOTATIONS>
69  13  5
70  14  5
71  15  6
84  15  5
72  16  5
73  17  6
76  18  6
78  19  5
85  19  5
46  2  6
77  20  5
80  21  6
86  26  6
87  27  6
88  28  5
90  29  6
52  3  5
58  3  5
91  30  5
93  31  6
32  47  5
33  94  6
34  95  6
35  96  6
36  97  6
37  50  5
38  98  6
42  53  6
43  106  6
59  5  6
66  5  6
57  61  5
67  6  6
63  65  5
62  7  5
68  7  5
74  81  5
75  82  6
79  83  5
64  8  6

$$$$
