102153907
  -OEChem-08252010123D

 68 71  0     1  0  0  0  0  0999 V2000
   -2.9759    1.0895    0.6620 O   0  0  0  0  0  0  0  0  0  0  0  0
    1.5921    0.1644    2.1606 O   0  0  0  0  0  0  0  0  0  0  0  0
    3.0171   -0.2499   -1.5102 O   0  0  0  0  0  0  0  0  0  0  0  0
   -4.7675    0.9411    2.1000 O   0  0  0  0  0  0  0  0  0  0  0  0
   -0.1826    0.4167    0.6839 N   0  0  0  0  0  0  0  0  0  0  0  0
    2.7183   -1.5742    0.3703 N   0  0  0  0  0  0  0  0  0  0  0  0
   -0.6992    1.6570    1.2160 C   0  0  1  0  0  0  0  0  0  0  0  0
    1.2804   -1.4862    0.4131 C   0  0  1  0  0  0  0  0  0  0  0  0
   -0.6810    2.7602    0.1464 C   0  0  0  0  0  0  0  0  0  0  0  0
    0.6442   -2.7210    1.0617 C   0  0  0  0  0  0  0  0  0  0  0  0
   -2.1193    1.4418    1.7425 C   0  0  0  0  0  0  0  0  0  0  0  0
    0.9288   -0.2316    1.2045 C   0  0  0  0  0  0  0  0  0  0  0  0
    0.6948    3.3392   -0.0836 C   0  0  0  0  0  0  0  0  0  0  0  0
   -0.8069   -2.8956    0.6850 C   0  0  0  0  0  0  0  0  0  0  0  0
    1.5367    2.7762   -1.0427 C   0  0  0  0  0  0  0  0  0  0  0  0
    1.1236    4.4369    0.6626 C   0  0  0  0  0  0  0  0  0  0  0  0
    3.4768   -0.9386   -0.6030 C   0  0  0  0  0  0  0  0  0  0  0  0
   -1.1495   -3.6449   -0.4405 C   0  0  0  0  0  0  0  0  0  0  0  0
   -1.8050   -2.3081    1.4621 C   0  0  0  0  0  0  0  0  0  0  0  0
    2.8073    3.3107   -1.2555 C   0  0  0  0  0  0  0  0  0  0  0  0
    2.3943    4.9716    0.4498 C   0  0  0  0  0  0  0  0  0  0  0  0
    4.9452   -1.1494   -0.5244 C   0  0  0  0  0  0  0  0  0  0  0  0
    3.2362    4.4085   -0.5092 C   0  0  0  0  0  0  0  0  0  0  0  0
   -2.4904   -3.8066   -0.7889 C   0  0  0  0  0  0  0  0  0  0  0  0
   -3.1461   -2.4699    1.1138 C   0  0  0  0  0  0  0  0  0  0  0  0
   -4.2795    0.8661    0.9829 C   0  0  0  0  0  0  0  0  0  0  0  0
   -3.4888   -3.2191   -0.0117 C   0  0  0  0  0  0  0  0  0  0  0  0
   -5.0638    0.5082   -0.2259 C   0  0  0  0  0  0  0  0  0  0  0  0
    5.7251   -1.0646   -1.6778 C   0  0  0  0  0  0  0  0  0  0  0  0
    5.5442   -1.4304    0.7034 C   0  0  0  0  0  0  0  0  0  0  0  0
    7.1041   -1.2612   -1.6034 C   0  0  0  0  0  0  0  0  0  0  0  0
    6.9231   -1.6269    0.7780 C   0  0  0  0  0  0  0  0  0  0  0  0
   -6.4280    0.2377   -0.1179 C   0  0  0  0  0  0  0  0  0  0  0  0
   -4.4364    0.4439   -1.4700 C   0  0  0  0  0  0  0  0  0  0  0  0
    7.7031   -1.5423   -0.3754 C   0  0  0  0  0  0  0  0  0  0  0  0
   -7.1648   -0.0970   -1.2541 C   0  0  0  0  0  0  0  0  0  0  0  0
   -5.1730    0.1092   -2.6061 C   0  0  0  0  0  0  0  0  0  0  0  0
   -6.5373   -0.1613   -2.4982 C   0  0  0  0  0  0  0  0  0  0  0  0
   -0.0790    1.9633    2.0673 H   0  0  0  0  0  0  0  0  0  0  0  0
    0.9298   -1.3767   -0.6211 H   0  0  0  0  0  0  0  0  0  0  0  0
   -1.3458    3.5821    0.4450 H   0  0  0  0  0  0  0  0  0  0  0  0
   -1.0821    2.3900   -0.8069 H   0  0  0  0  0  0  0  0  0  0  0  0
   -0.6668    0.0120   -0.1123 H   0  0  0  0  0  0  0  0  0  0  0  0
    0.7386   -2.6817    2.1553 H   0  0  0  0  0  0  0  0  0  0  0  0
    1.1901   -3.6249    0.7583 H   0  0  0  0  0  0  0  0  0  0  0  0
   -2.4861    2.3635    2.2105 H   0  0  0  0  0  0  0  0  0  0  0  0
   -2.1277    0.6430    2.4930 H   0  0  0  0  0  0  0  0  0  0  0  0
    3.1626   -2.1464    1.0800 H   0  0  0  0  0  0  0  0  0  0  0  0
    1.2115    1.9243   -1.6335 H   0  0  0  0  0  0  0  0  0  0  0  0
    0.4779    4.8829    1.4144 H   0  0  0  0  0  0  0  0  0  0  0  0
   -0.3809   -4.1054   -1.0554 H   0  0  0  0  0  0  0  0  0  0  0  0
   -1.5523   -1.7362    2.3503 H   0  0  0  0  0  0  0  0  0  0  0  0
    3.4627    2.8724   -2.0024 H   0  0  0  0  0  0  0  0  0  0  0  0
    2.7285    5.8258    1.0314 H   0  0  0  0  0  0  0  0  0  0  0  0
    4.2256    4.8245   -0.6748 H   0  0  0  0  0  0  0  0  0  0  0  0
   -2.7575   -4.3893   -1.6656 H   0  0  0  0  0  0  0  0  0  0  0  0
   -3.9238   -2.0238    1.7261 H   0  0  0  0  0  0  0  0  0  0  0  0
   -4.5330   -3.3458   -0.2820 H   0  0  0  0  0  0  0  0  0  0  0  0
    5.2766   -0.8503   -2.6443 H   0  0  0  0  0  0  0  0  0  0  0  0
    4.9812   -1.4716    1.6309 H   0  0  0  0  0  0  0  0  0  0  0  0
    7.7115   -1.1957   -2.5014 H   0  0  0  0  0  0  0  0  0  0  0  0
    7.3913   -1.8380    1.7350 H   0  0  0  0  0  0  0  0  0  0  0  0
   -6.9353    0.2821    0.8421 H   0  0  0  0  0  0  0  0  0  0  0  0
   -3.3768    0.6453   -1.5997 H   0  0  0  0  0  0  0  0  0  0  0  0
    8.7770   -1.6937   -0.3170 H   0  0  0  0  0  0  0  0  0  0  0  0
   -8.2269   -0.3079   -1.1703 H   0  0  0  0  0  0  0  0  0  0  0  0
   -4.6848    0.0583   -3.5750 H   0  0  0  0  0  0  0  0  0  0  0  0
   -7.1107   -0.4223   -3.3829 H   0  0  0  0  0  0  0  0  0  0  0  0
  1 11  1  0  0  0  0
  1 26  1  0  0  0  0
  2 12  2  0  0  0  0
  3 17  2  0  0  0  0
  4 26  2  0  0  0  0
  5  7  1  0  0  0  0
  5 12  1  0  0  0  0
  5 43  1  0  0  0  0
  6  8  1  0  0  0  0
  6 17  1  0  0  0  0
  6 48  1  0  0  0  0
  7  9  1  0  0  0  0
  7 11  1  0  0  0  0
  7 39  1  0  0  0  0
  8 10  1  0  0  0  0
  8 12  1  0  0  0  0
  8 40  1  0  0  0  0
  9 13  1  0  0  0  0
  9 41  1  0  0  0  0
  9 42  1  0  0  0  0
 10 14  1  0  0  0  0
 10 44  1  0  0  0  0
 10 45  1  0  0  0  0
 11 46  1  0  0  0  0
 11 47  1  0  0  0  0
 13 15  2  0  0  0  0
 13 16  1  0  0  0  0
 14 18  2  0  0  0  0
 14 19  1  0  0  0  0
 15 20  1  0  0  0  0
 15 49  1  0  0  0  0
 16 21  2  0  0  0  0
 16 50  1  0  0  0  0
 17 22  1  0  0  0  0
 18 24  1  0  0  0  0
 18 51  1  0  0  0  0
 19 25  2  0  0  0  0
 19 52  1  0  0  0  0
 20 23  2  0  0  0  0
 20 53  1  0  0  0  0
 21 23  1  0  0  0  0
 21 54  1  0  0  0  0
 22 29  2  0  0  0  0
 22 30  1  0  0  0  0
 23 55  1  0  0  0  0
 24 27  2  0  0  0  0
 24 56  1  0  0  0  0
 25 27  1  0  0  0  0
 25 57  1  0  0  0  0
 26 28  1  0  0  0  0
 27 58  1  0  0  0  0
 28 33  2  0  0  0  0
 28 34  1  0  0  0  0
 29 31  1  0  0  0  0
 29 59  1  0  0  0  0
 30 32  2  0  0  0  0
 30 60  1  0  0  0  0
 31 35  2  0  0  0  0
 31 61  1  0  0  0  0
 32 35  1  0  0  0  0
 32 62  1  0  0  0  0
 33 36  1  0  0  0  0
 33 63  1  0  0  0  0
 34 37  2  0  0  0  0
 34 64  1  0  0  0  0
 35 65  1  0  0  0  0
 36 38  2  0  0  0  0
 36 66  1  0  0  0  0
 37 38  1  0  0  0  0
 37 67  1  0  0  0  0
 38 68  1  0  0  0  0
M  END
> <PUBCHEM_COMPOUND_CID>
102153907

> <PUBCHEM_CONFORMER_RMSD>
1.2

> <PUBCHEM_CONFORMER_DIVERSEORDER>
1
65
95
5
100
48
94
10
7
104
87
80
88
40
112
81
115
22
58
3
73
38
57
109
111
31
43
99
72
118
53
98
106
6
116
47
29
28
70
82
114
89
84
39
117
18
76
78
74
93
105
16
101
90
103
63
110
8
32
69
21
77
35
92
97
71
11
20
67
51
26
55
85
9
113
52
59
37
45
108
42
13
49
24
91
86
41
12
34
61
64
68
50
23
46
33
17
83
62
27
79
25
30
96
107
66
36
15
4
75
2
19
102
60
56
54
14
44

> <PUBCHEM_MMFF94_PARTIAL_CHARGES>
60
1 -0.43
10 0.14
11 0.28
12 0.57
13 -0.14
14 -0.14
15 -0.15
16 -0.15
17 0.54
18 -0.15
19 -0.15
2 -0.57
20 -0.15
21 -0.15
22 0.09
23 -0.15
24 -0.15
25 -0.15
26 0.63
27 -0.15
28 0.09
29 -0.15
3 -0.57
30 -0.15
31 -0.15
32 -0.15
33 -0.15
34 -0.15
35 -0.15
36 -0.15
37 -0.15
38 -0.15
4 -0.57
43 0.37
48 0.37
49 0.15
5 -0.73
50 0.15
51 0.15
52 0.15
53 0.15
54 0.15
55 0.15
56 0.15
57 0.15
58 0.15
59 0.15
6 -0.73
60 0.15
61 0.15
62 0.15
63 0.15
64 0.15
65 0.15
66 0.15
67 0.15
68 0.15
7 0.3
8 0.36
9 0.14

> <PUBCHEM_EFFECTIVE_ROTOR_COUNT>
14

> <PUBCHEM_PHARMACOPHORE_FEATURES>
9
1 2 acceptor
1 3 acceptor
1 4 acceptor
1 5 donor
1 6 donor
6 13 15 16 20 21 23 rings
6 14 18 19 24 25 27 rings
6 22 29 30 31 32 35 rings
6 28 33 34 36 37 38 rings

> <PUBCHEM_HEAVY_ATOM_COUNT>
38

> <PUBCHEM_ATOM_DEF_STEREO_COUNT>
2

> <PUBCHEM_ATOM_UDEF_STEREO_COUNT>
0

> <PUBCHEM_BOND_DEF_STEREO_COUNT>
0

> <PUBCHEM_BOND_UDEF_STEREO_COUNT>
0

> <PUBCHEM_ISOTOPIC_ATOM_COUNT>
0

> <PUBCHEM_COMPONENT_COUNT>
1

> <PUBCHEM_CACTVS_TAUTO_COUNT>
16

> <PUBCHEM_CONFORMER_ID>
0616BEB300000001

> <PUBCHEM_MMFF94_ENERGY>
100.424

> <PUBCHEM_FEATURE_SELFOVERLAP>
45.673

> <PUBCHEM_SHAPE_FINGERPRINT>
10930396 42 18195500689982343674
1100329 8 18337966652643178008
11513181 2 17908698776033475582
12788726 201 18189897513907223490
13911987 19 18187926119555066803
14068700 675 18202279169618207560
14295345 954 17988921197748686446
14394314 77 18196095447535773633
15684973 49 17631469886070693145
17492 54 18335412419087929051
20609170 92 18042963375754790757
20775438 99 18054768827005498807
21779490 1 17984679367678017712
21779490 27 18339930312434759988
23559900 14 18341327898248991056
23576562 1 18187929529463253175
24771293 8 18272088275968987528
249057 3 18408324393104203302
25019877 29 17560517305576853902
32027 91 18411984701673243108
4280585 95 18410853248715948256
4394409 98 18262239919631507271
460360 51 18043814396900302913
50677037 204 18270685247112159562
5776283 40 18187640306613525093
6086070 43 18335417993364745994

> <PUBCHEM_SHAPE_MULTIPOLES>
748.58
16.83
5.84
1.96
5.7
5.24
-0.48
-7.59
-8.94
3.9
0.49
-1.79
0.01
-0.07

> <PUBCHEM_SHAPE_SELFOVERLAP>
1607.735

> <PUBCHEM_SHAPE_VOLUME>
408.3

> <PUBCHEM_COORDINATE_TYPE>
2
5
10

$$$$
