90479327
  -OEChem-08242016363D

 86 92  0     1  0  0  0  0  0999 V2000
    1.9839   -1.5633    2.3325 O   0  0  0  0  0  0  0  0  0  0  0  0
    2.0933   -2.9102    0.0712 O   0  0  0  0  0  0  0  0  0  0  0  0
   -2.5223    0.6054    0.5574 O   0  0  0  0  0  0  0  0  0  0  0  0
    2.2337    3.4340    0.1476 O   0  0  0  0  0  0  0  0  0  0  0  0
    4.7518   -2.3351    1.4412 O   0  0  0  0  0  0  0  0  0  0  0  0
    5.9484   -1.0785   -1.1479 O   0  0  0  0  0  0  0  0  0  0  0  0
   -3.6638    2.1524   -0.7085 O   0  0  0  0  0  0  0  0  0  0  0  0
   -4.9349   -3.7960   -0.7664 O   0  0  0  0  0  0  0  0  0  0  0  0
    0.2818    1.3459   -1.7585 N   0  0  2  0  0  0  0  0  0  0  0  0
   -4.0400   -1.6225   -0.5891 N   0  0  0  0  0  0  0  0  0  0  0  0
    1.2362    1.1824    0.5422 C   0  0  1  0  0  0  0  0  0  0  0  0
    2.4821    0.6124    1.3451 C   0  0  1  0  0  0  0  0  0  0  0  0
    1.3142    0.6922   -0.9261 C   0  0  1  0  0  0  0  0  0  0  0  0
   -0.1152    0.4845    0.9193 C   0  0  2  0  0  0  0  0  0  0  0  0
    1.1219   -0.8407   -0.7039 C   0  0  1  0  0  0  0  0  0  0  0  0
    2.7284   -0.9218    1.3005 C   0  0  2  0  0  0  0  0  0  0  0  0
    2.3921   -1.5094   -0.0993 C   0  0  1  0  0  0  0  0  0  0  0  0
   -0.0407   -0.9342    0.3070 C   0  0  0  0  0  0  0  0  0  0  0  0
   -1.2816    1.2364    0.2258 C   0  0  1  0  0  0  0  0  0  0  0  0
    1.1666    2.7345    0.7826 C   0  0  2  0  0  0  0  0  0  0  0  0
    3.8631    1.1919    0.9329 C   0  0  0  0  0  0  0  0  0  0  0  0
    4.7942   -0.0064    0.6908 C   0  0  1  0  0  0  0  0  0  0  0  0
    4.2187   -1.0419    1.6434 C   0  0  2  0  0  0  0  0  0  0  0  0
    3.5900   -1.4656   -1.0857 C   0  0  0  0  0  0  0  0  0  0  0  0
   -1.1071    1.1581   -1.3153 C   0  0  0  0  0  0  0  0  0  0  0  0
    4.7101   -0.4599   -0.7798 C   0  0  2  0  0  0  0  0  0  0  0  0
   -1.3573    2.6773    0.7320 C   0  0  0  0  0  0  0  0  0  0  0  0
   -0.1154    3.4631    0.3838 C   0  0  0  0  0  0  0  0  0  0  0  0
    0.4323    1.0400   -3.1775 C   0  0  0  0  0  0  0  0  0  0  0  0
   -0.4479    1.9391   -4.0292 C   0  0  0  0  0  0  0  0  0  0  0  0
    2.5845    4.6060    0.8675 C   0  0  0  0  0  0  0  0  0  0  0  0
    6.0315   -2.4811    2.0486 C   0  0  0  0  0  0  0  0  0  0  0  0
   -3.6315    1.1720    0.0188 C   0  0  0  0  0  0  0  0  0  0  0  0
    6.1640   -0.9971   -2.5462 C   0  0  0  0  0  0  0  0  0  0  0  0
   -4.8464    0.4278    0.4371 C   0  0  0  0  0  0  0  0  0  0  0  0
   -5.0134   -0.9221    0.1290 C   0  0  0  0  0  0  0  0  0  0  0  0
   -5.8326    1.1074    1.1521 C   0  0  0  0  0  0  0  0  0  0  0  0
   -6.1669   -1.5928    0.5359 C   0  0  0  0  0  0  0  0  0  0  0  0
   -6.9861    0.4367    1.5590 C   0  0  0  0  0  0  0  0  0  0  0  0
   -7.1532   -0.9134    1.2509 C   0  0  0  0  0  0  0  0  0  0  0  0
   -4.0559   -2.9669   -0.9784 C   0  0  0  0  0  0  0  0  0  0  0  0
   -2.8104   -3.3403   -1.7426 C   0  0  0  0  0  0  0  0  0  0  0  0
    2.3143    0.8932    2.3959 H   0  0  0  0  0  0  0  0  0  0  0  0
    2.2901    0.9244   -1.3586 H   0  0  0  0  0  0  0  0  0  0  0  0
   -0.2760    0.4294    2.0019 H   0  0  0  0  0  0  0  0  0  0  0  0
    0.8474   -1.3633   -1.6276 H   0  0  0  0  0  0  0  0  0  0  0  0
   -0.9627   -1.2339   -0.1994 H   0  0  0  0  0  0  0  0  0  0  0  0
    0.0883   -1.7008    1.0727 H   0  0  0  0  0  0  0  0  0  0  0  0
    1.2550    2.8559    1.8730 H   0  0  0  0  0  0  0  0  0  0  0  0
    4.2516    1.7943    1.7640 H   0  0  0  0  0  0  0  0  0  0  0  0
    3.8467    1.8376    0.0552 H   0  0  0  0  0  0  0  0  0  0  0  0
    5.8290    0.2527    0.9400 H   0  0  0  0  0  0  0  0  0  0  0  0
    4.3757   -0.7475    2.6915 H   0  0  0  0  0  0  0  0  0  0  0  0
    3.2244   -1.2908   -2.1068 H   0  0  0  0  0  0  0  0  0  0  0  0
    4.0316   -2.4717   -1.1457 H   0  0  0  0  0  0  0  0  0  0  0  0
   -1.5098    0.2122   -1.7001 H   0  0  0  0  0  0  0  0  0  0  0  0
   -1.7027    1.9461   -1.7830 H   0  0  0  0  0  0  0  0  0  0  0  0
    4.5802    0.4317   -1.4063 H   0  0  0  0  0  0  0  0  0  0  0  0
   -1.4795    2.6577    1.8245 H   0  0  0  0  0  0  0  0  0  0  0  0
   -2.2041    3.2671    0.3809 H   0  0  0  0  0  0  0  0  0  0  0  0
   -0.1026    3.7183   -0.6829 H   0  0  0  0  0  0  0  0  0  0  0  0
   -0.1724    4.4317    0.8955 H   0  0  0  0  0  0  0  0  0  0  0  0
    2.2207   -1.1584    3.1838 H   0  0  0  0  0  0  0  0  0  0  0  0
    1.8396   -3.2699   -0.7961 H   0  0  0  0  0  0  0  0  0  0  0  0
    1.4715    1.2169   -3.4809 H   0  0  0  0  0  0  0  0  0  0  0  0
    0.2074   -0.0101   -3.3975 H   0  0  0  0  0  0  0  0  0  0  0  0
   -1.5081    1.6782   -3.9530 H   0  0  0  0  0  0  0  0  0  0  0  0
   -0.3230    2.9947   -3.7643 H   0  0  0  0  0  0  0  0  0  0  0  0
   -0.1711    1.8312   -5.0838 H   0  0  0  0  0  0  0  0  0  0  0  0
    1.7863    5.3519    0.8448 H   0  0  0  0  0  0  0  0  0  0  0  0
    2.8589    4.3688    1.9004 H   0  0  0  0  0  0  0  0  0  0  0  0
    3.4607    5.0456    0.3818 H   0  0  0  0  0  0  0  0  0  0  0  0
    6.3798   -3.5008    1.8627 H   0  0  0  0  0  0  0  0  0  0  0  0
    5.9639   -2.3325    3.1307 H   0  0  0  0  0  0  0  0  0  0  0  0
    6.7567   -1.7872    1.6151 H   0  0  0  0  0  0  0  0  0  0  0  0
    7.1201   -1.4791   -2.7698 H   0  0  0  0  0  0  0  0  0  0  0  0
    6.2280    0.0464   -2.8707 H   0  0  0  0  0  0  0  0  0  0  0  0
    5.3839   -1.5204   -3.1062 H   0  0  0  0  0  0  0  0  0  0  0  0
   -5.7137    2.1591    1.3996 H   0  0  0  0  0  0  0  0  0  0  0  0
   -6.3746   -2.6346    0.3400 H   0  0  0  0  0  0  0  0  0  0  0  0
   -7.7539    0.9656    2.1160 H   0  0  0  0  0  0  0  0  0  0  0  0
   -3.2210   -1.0857   -0.8599 H   0  0  0  0  0  0  0  0  0  0  0  0
   -8.0519   -1.4343    1.5687 H   0  0  0  0  0  0  0  0  0  0  0  0
   -1.9894   -3.5008   -1.0386 H   0  0  0  0  0  0  0  0  0  0  0  0
   -2.5363   -2.5499   -2.4474 H   0  0  0  0  0  0  0  0  0  0  0  0
   -2.9875   -4.2607   -2.3059 H   0  0  0  0  0  0  0  0  0  0  0  0
  1 16  1  0  0  0  0
  1 63  1  0  0  0  0
  2 17  1  0  0  0  0
  2 64  1  0  0  0  0
  3 19  1  0  0  0  0
  3 33  1  0  0  0  0
  4 20  1  0  0  0  0
  4 31  1  0  0  0  0
  5 23  1  0  0  0  0
  5 32  1  0  0  0  0
  6 26  1  0  0  0  0
  6 34  1  0  0  0  0
  7 33  2  0  0  0  0
  8 41  2  0  0  0  0
  9 13  1  0  0  0  0
  9 25  1  0  0  0  0
  9 29  1  0  0  0  0
 10 36  1  0  0  0  0
 10 41  1  0  0  0  0
 10 82  1  0  0  0  0
 11 12  1  0  0  0  0
 11 13  1  0  0  0  0
 11 14  1  0  0  0  0
 11 20  1  0  0  0  0
 12 16  1  0  0  0  0
 12 21  1  0  0  0  0
 12 43  1  0  0  0  0
 13 15  1  0  0  0  0
 13 44  1  0  0  0  0
 14 18  1  0  0  0  0
 14 19  1  0  0  0  0
 14 45  1  0  0  0  0
 15 17  1  0  0  0  0
 15 18  1  0  0  0  0
 15 46  1  0  0  0  0
 16 17  1  0  0  0  0
 16 23  1  0  0  0  0
 17 24  1  0  0  0  0
 18 47  1  0  0  0  0
 18 48  1  0  0  0  0
 19 25  1  0  0  0  0
 19 27  1  0  0  0  0
 20 28  1  0  0  0  0
 20 49  1  0  0  0  0
 21 22  1  0  0  0  0
 21 50  1  0  0  0  0
 21 51  1  0  0  0  0
 22 23  1  0  0  0  0
 22 26  1  0  0  0  0
 22 52  1  0  0  0  0
 23 53  1  0  0  0  0
 24 26  1  0  0  0  0
 24 54  1  0  0  0  0
 24 55  1  0  0  0  0
 25 56  1  0  0  0  0
 25 57  1  0  0  0  0
 26 58  1  0  0  0  0
 27 28  1  0  0  0  0
 27 59  1  0  0  0  0
 27 60  1  0  0  0  0
 28 61  1  0  0  0  0
 28 62  1  0  0  0  0
 29 30  1  0  0  0  0
 29 65  1  0  0  0  0
 29 66  1  0  0  0  0
 30 67  1  0  0  0  0
 30 68  1  0  0  0  0
 30 69  1  0  0  0  0
 31 70  1  0  0  0  0
 31 71  1  0  0  0  0
 31 72  1  0  0  0  0
 32 73  1  0  0  0  0
 32 74  1  0  0  0  0
 32 75  1  0  0  0  0
 33 35  1  0  0  0  0
 34 76  1  0  0  0  0
 34 77  1  0  0  0  0
 34 78  1  0  0  0  0
 35 36  1  0  0  0  0
 35 37  2  0  0  0  0
 36 38  2  0  0  0  0
 37 39  1  0  0  0  0
 37 79  1  0  0  0  0
 38 40  1  0  0  0  0
 38 80  1  0  0  0  0
 39 40  2  0  0  0  0
 39 81  1  0  0  0  0
 40 83  1  0  0  0  0
 41 42  1  0  0  0  0
 42 84  1  0  0  0  0
 42 85  1  0  0  0  0
 42 86  1  0  0  0  0
M  END
> <PUBCHEM_COMPOUND_CID>
90479327

> <PUBCHEM_CONFORMER_RMSD>
1.2

> <PUBCHEM_CONFORMER_DIVERSEORDER>
1
7
4
8
10
3
2
11
6
5
9

> <PUBCHEM_MMFF94_PARTIAL_CHARGES>
38
1 -0.68
10 -0.55
13 0.27
16 0.28
17 0.28
19 0.28
2 -0.68
20 0.28
23 0.28
25 0.27
26 0.28
29 0.27
3 -0.43
31 0.28
32 0.28
33 0.63
34 0.28
35 0.09
36 0.12
37 -0.15
38 -0.15
39 -0.15
4 -0.56
40 -0.15
41 0.57
42 0.06
5 -0.56
6 -0.56
63 0.4
64 0.4
7 -0.57
79 0.15
8 -0.57
80 0.15
81 0.15
82 0.37
83 0.15
9 -0.81

> <PUBCHEM_EFFECTIVE_ROTOR_COUNT>
11

> <PUBCHEM_PHARMACOPHORE_FEATURES>
16
1 1 acceptor
1 1 donor
1 10 donor
1 2 acceptor
1 2 donor
1 4 acceptor
1 5 acceptor
1 6 acceptor
1 7 acceptor
1 8 acceptor
1 9 cation
6 11 14 19 20 27 28 rings
6 35 36 37 38 39 40 rings
8 11 12 13 14 15 16 17 18 rings
8 12 16 17 21 22 23 24 26 rings
8 9 11 13 14 15 18 19 25 rings

> <PUBCHEM_HEAVY_ATOM_COUNT>
42

> <PUBCHEM_ATOM_DEF_STEREO_COUNT>
12

> <PUBCHEM_ATOM_UDEF_STEREO_COUNT>
0

> <PUBCHEM_BOND_DEF_STEREO_COUNT>
0

> <PUBCHEM_BOND_UDEF_STEREO_COUNT>
0

> <PUBCHEM_ISOTOPIC_ATOM_COUNT>
0

> <PUBCHEM_COMPONENT_COUNT>
1

> <PUBCHEM_CACTVS_TAUTO_COUNT>
9

> <PUBCHEM_CONFORMER_ID>
05649ADF00000001

> <PUBCHEM_MMFF94_ENERGY>
211.2388

> <PUBCHEM_FEATURE_SELFOVERLAP>
82.739

> <PUBCHEM_SHAPE_FINGERPRINT>
10169797 241 18192725650570882026
11513181 2 17769657825677655766
11578080 2 15050862323001001010
11763715 3 18049751549548690620
12128747 34 15912221788867315227
12166972 35 17822016376118494952
12422481 6 16917349251018655325
12633046 712 18044921390620000180
12633257 1 18202003261656914853
13690498 29 18261397715363107877
13782708 43 17895468137788525880
14068700 675 18412546504722184072
14117953 113 18272935986738653869
14705955 166 16701189547470548449
14790565 3 17403454568956942945
14955137 171 17561085804332810264
15001296 14 18266734865195317899
15250474 111 18056752363911162855
15361156 5 18262529199048831043
15927050 60 17909550893703604504
16110190 28 18271528693295922803
16112460 7 18342463694324986163
1813 80 17749111076027335037
18608769 82 18273215288287962710
19315092 285 16806993356904762416
21033648 29 16987704702309539441
21421861 104 18339644550711422313
23522609 53 17899165769608030493
23559900 14 18131354115416267049
24771293 8 18057873831385714248
392239 28 18342172245932976275
44880168 125 17775282725354583831
463206 1 18336548334700198635
5080951 261 17680959964718455370

> <PUBCHEM_SHAPE_MULTIPOLES>
807.42
14.75
4.16
2.44
13.05
1.33
2.3
-9.97
-4.85
-0.1
0.03
-1.76
0.13
-1.21

> <PUBCHEM_SHAPE_SELFOVERLAP>
1777.603

> <PUBCHEM_SHAPE_VOLUME>
426.1

> <PUBCHEM_COORDINATE_TYPE>
2
5
10

$$$$
