10956867
  -OEChem-09082015013D

 45 48  0     1  0  0  0  0  0999 V2000
    0.3697   -2.4767   -0.6203 O   0  0  0  0  0  0  0  0  0  0  0  0
   -1.3688    1.0136    1.5973 O   0  0  0  0  0  0  0  0  0  0  0  0
    1.3863    2.4216    1.5541 O   0  0  0  0  0  0  0  0  0  0  0  0
   -1.6327   -0.3712   -1.0485 N   0  0  1  0  0  0  0  0  0  0  0  0
   -0.3119   -0.1371   -0.3960 C   0  0  2  0  0  0  0  0  0  0  0  0
    0.1610   -1.4260    0.3535 C   0  0  2  0  0  0  0  0  0  0  0  0
   -0.3914    1.1212    0.5538 C   0  0  1  0  0  0  0  0  0  0  0  0
    1.5341   -1.1287    1.0078 C   0  0  1  0  0  0  0  0  0  0  0  0
    0.7461    0.0858   -1.5571 C   0  0  0  0  0  0  0  0  0  0  0  0
    2.2195    0.1739   -1.1104 C   0  0  1  0  0  0  0  0  0  0  0  0
   -0.8879   -2.0009    1.3131 C   0  0  0  0  0  0  0  0  0  0  0  0
    2.6022   -0.9059   -0.0882 C   0  0  0  0  0  0  0  0  0  0  0  0
    1.5001    0.0635    1.9739 C   0  0  0  0  0  0  0  0  0  0  0  0
   -0.8150    2.3699   -0.2317 C   0  0  0  0  0  0  0  0  0  0  0  0
    0.8970    1.3112    1.3468 C   0  0  0  0  0  0  0  0  0  0  0  0
   -2.6665   -0.9510   -0.1787 C   0  0  0  0  0  0  0  0  0  0  0  0
   -2.1405    0.8129   -1.7652 C   0  0  0  0  0  0  0  0  0  0  0  0
   -2.2115   -2.2010    0.5754 C   0  0  0  0  0  0  0  0  0  0  0  0
   -2.1411    2.1137   -0.9554 C   0  0  0  0  0  0  0  0  0  0  0  0
    3.1514    0.1111   -2.3241 C   0  0  0  0  0  0  0  0  0  0  0  0
    1.8550   -2.0125    1.5758 H   0  0  0  0  0  0  0  0  0  0  0  0
    0.5287    0.9899   -2.1353 H   0  0  0  0  0  0  0  0  0  0  0  0
    0.6518   -0.7326   -2.2858 H   0  0  0  0  0  0  0  0  0  0  0  0
    2.3847    1.1575   -0.6579 H   0  0  0  0  0  0  0  0  0  0  0  0
   -1.0445   -1.3503    2.1781 H   0  0  0  0  0  0  0  0  0  0  0  0
   -0.5598   -2.9709    1.7071 H   0  0  0  0  0  0  0  0  0  0  0  0
    3.5625   -0.6455    0.3753 H   0  0  0  0  0  0  0  0  0  0  0  0
    2.7794   -1.8560   -0.6092 H   0  0  0  0  0  0  0  0  0  0  0  0
    2.5131    0.3013    2.3183 H   0  0  0  0  0  0  0  0  0  0  0  0
    0.9053   -0.1794    2.8610 H   0  0  0  0  0  0  0  0  0  0  0  0
   -0.0434    2.6731   -0.9474 H   0  0  0  0  0  0  0  0  0  0  0  0
   -0.9524    3.2290    0.4381 H   0  0  0  0  0  0  0  0  0  0  0  0
   -3.5237   -1.2442   -0.7988 H   0  0  0  0  0  0  0  0  0  0  0  0
   -3.0582   -0.2217    0.5370 H   0  0  0  0  0  0  0  0  0  0  0  0
   -3.1549    0.6221   -2.1391 H   0  0  0  0  0  0  0  0  0  0  0  0
   -1.5471    0.9617   -2.6747 H   0  0  0  0  0  0  0  0  0  0  0  0
   -2.1129   -3.0323   -0.1343 H   0  0  0  0  0  0  0  0  0  0  0  0
   -2.9865   -2.4993    1.2913 H   0  0  0  0  0  0  0  0  0  0  0  0
   -2.9556    2.0833   -0.2211 H   0  0  0  0  0  0  0  0  0  0  0  0
   -2.3596    2.9573   -1.6205 H   0  0  0  0  0  0  0  0  0  0  0  0
    0.7362   -3.2478   -0.1544 H   0  0  0  0  0  0  0  0  0  0  0  0
    4.1963    0.2253   -2.0168 H   0  0  0  0  0  0  0  0  0  0  0  0
    3.0555   -0.8438   -2.8518 H   0  0  0  0  0  0  0  0  0  0  0  0
    2.9204    0.9140   -3.0322 H   0  0  0  0  0  0  0  0  0  0  0  0
   -1.3945    1.8506    2.0919 H   0  0  0  0  0  0  0  0  0  0  0  0
  1  6  1  0  0  0  0
  1 41  1  0  0  0  0
  2  7  1  0  0  0  0
  2 45  1  0  0  0  0
  3 15  2  0  0  0  0
  4  5  1  0  0  0  0
  4 16  1  0  0  0  0
  4 17  1  0  0  0  0
  5  6  1  0  0  0  0
  5  7  1  0  0  0  0
  5  9  1  0  0  0  0
  6  8  1  0  0  0  0
  6 11  1  0  0  0  0
  7 14  1  0  0  0  0
  7 15  1  0  0  0  0
  8 12  1  0  0  0  0
  8 13  1  0  0  0  0
  8 21  1  0  0  0  0
  9 10  1  0  0  0  0
  9 22  1  0  0  0  0
  9 23  1  0  0  0  0
 10 12  1  0  0  0  0
 10 20  1  0  0  0  0
 10 24  1  0  0  0  0
 11 18  1  0  0  0  0
 11 25  1  0  0  0  0
 11 26  1  0  0  0  0
 12 27  1  0  0  0  0
 12 28  1  0  0  0  0
 13 15  1  0  0  0  0
 13 29  1  0  0  0  0
 13 30  1  0  0  0  0
 14 19  1  0  0  0  0
 14 31  1  0  0  0  0
 14 32  1  0  0  0  0
 16 18  1  0  0  0  0
 16 33  1  0  0  0  0
 16 34  1  0  0  0  0
 17 19  1  0  0  0  0
 17 35  1  0  0  0  0
 17 36  1  0  0  0  0
 18 37  1  0  0  0  0
 18 38  1  0  0  0  0
 19 39  1  0  0  0  0
 19 40  1  0  0  0  0
 20 42  1  0  0  0  0
 20 43  1  0  0  0  0
 20 44  1  0  0  0  0
M  END
> <PUBCHEM_COMPOUND_CID>
10956867

> <PUBCHEM_CONFORMER_RMSD>
0.6

> <PUBCHEM_CONFORMER_DIVERSEORDER>
1

> <PUBCHEM_MMFF94_PARTIAL_CHARGES>
13
1 -0.68
13 0.06
15 0.45
16 0.27
17 0.27
2 -0.68
3 -0.57
4 -0.81
41 0.4
45 0.4
5 0.27
6 0.28
7 0.34

> <PUBCHEM_EFFECTIVE_ROTOR_COUNT>
2

> <PUBCHEM_PHARMACOPHORE_FEATURES>
10
1 1 acceptor
1 1 donor
1 2 acceptor
1 2 donor
1 3 acceptor
1 4 cation
6 4 5 6 11 16 18 rings
6 4 5 7 14 17 19 rings
6 5 6 7 8 13 15 rings
6 5 6 8 9 10 12 rings

> <PUBCHEM_HEAVY_ATOM_COUNT>
20

> <PUBCHEM_ATOM_DEF_STEREO_COUNT>
5

> <PUBCHEM_ATOM_UDEF_STEREO_COUNT>
0

> <PUBCHEM_BOND_DEF_STEREO_COUNT>
0

> <PUBCHEM_BOND_UDEF_STEREO_COUNT>
0

> <PUBCHEM_ISOTOPIC_ATOM_COUNT>
0

> <PUBCHEM_COMPONENT_COUNT>
1

> <PUBCHEM_CACTVS_TAUTO_COUNT>
2

> <PUBCHEM_CONFORMER_ID>
00A7304300000001

> <PUBCHEM_MMFF94_ENERGY>
60.0704

> <PUBCHEM_FEATURE_SELFOVERLAP>
52.492

> <PUBCHEM_SHAPE_FINGERPRINT>
10863032 1 17314245383455806277
10948715 1 17241624822295404045
12423570 1 12147605077391888827
12491281 212 17313673650420943534
13024252 1 14420411249930945534
13299463 15 18412266124988403439
13898156 1 17023447724967910686
14115302 16 18116980105527808477
141345 1 13496195602637182954
14142880 1 17395910677949710236
144361 1 17822014245577228907
14761567 1 18198060274692692174
14817 1 12665009067334091600
16945 1 17466473764774957160
20691752 17 17897717906647389891
23419403 2 17986127415732519056
23559900 14 18197763416198682210
2748010 2 18194942236057878777
353137 74 17313956340731123447
430814 3 17261913981629766920
576247 118 17987256553928346598
5845 1 8561028908305874611
84936 31 16984923178556873988

> <PUBCHEM_SHAPE_MULTIPOLES>
389
3.53
2.58
2.01
0.69
0.22
-0.16
-0.08
1.58
-1.29
-0.38
1.07
-0.68
0.2

> <PUBCHEM_SHAPE_SELFOVERLAP>
842.466

> <PUBCHEM_SHAPE_VOLUME>
207.9

> <PUBCHEM_COORDINATE_TYPE>
2
5
10

$$$$
