102588705
  -OEChem-09082015113D

 40 43  0     1  0  0  0  0  0999 V2000
    0.0968   -3.0825   -1.3220 O   0  0  0  0  0  0  0  0  0  0  0  0
   -2.1460   -2.7161    0.3334 O   0  0  0  0  0  0  0  0  0  0  0  0
    1.6748    1.1460    0.5111 N   0  0  1  0  0  0  0  0  0  0  0  0
    0.3915    0.5964   -0.0164 C   0  0  1  0  0  0  0  0  0  0  0  0
   -0.5645    0.2802    1.1386 C   0  0  1  0  0  0  0  0  0  0  0  0
   -1.7722   -0.3241    0.4055 C   0  0  3  0  0  0  0  0  0  0  0  0
   -0.3701    1.7809   -0.7942 C   0  0  0  0  0  0  0  0  0  0  0  0
   -1.9705    1.7929   -0.8658 C   0  0  1  0  0  0  0  0  0  0  0  0
    0.0391   -0.5628    2.2684 C   0  0  0  0  0  0  0  0  0  0  0  0
   -2.7360    0.8051    0.1134 C   0  0  0  0  0  0  0  0  0  0  0  0
    0.6451   -0.7430   -0.8414 C   0  0  0  0  0  0  0  0  0  0  0  0
    2.2810    0.3345    1.5807 C   0  0  0  0  0  0  0  0  0  0  0  0
    1.3220    0.1034    2.7473 C   0  0  0  0  0  0  0  0  0  0  0  0
   -1.4400   -1.7553    0.0649 C   0  0  0  0  0  0  0  0  0  0  0  0
    2.6371    1.3963   -0.5781 C   0  0  0  0  0  0  0  0  0  0  0  0
   -0.1334   -1.8641   -0.7298 C   0  0  0  0  0  0  0  0  0  0  0  0
   -2.5211    3.2112   -0.7346 C   0  0  0  0  0  0  0  0  0  0  0  0
    1.8324   -0.6932   -1.6870 C   0  0  0  0  0  0  0  0  0  0  0  0
    2.7340    0.2942   -1.5942 C   0  0  0  0  0  0  0  0  0  0  0  0
   -0.8539    1.2242    1.6290 H   0  0  0  0  0  0  0  0  0  0  0  0
   -2.3592   -0.6478    1.2949 H   0  0  0  0  0  0  0  0  0  0  0  0
    0.0142    1.8527   -1.8201 H   0  0  0  0  0  0  0  0  0  0  0  0
   -0.0812    2.7246   -0.3076 H   0  0  0  0  0  0  0  0  0  0  0  0
   -2.2114    1.4410   -1.8792 H   0  0  0  0  0  0  0  0  0  0  0  0
    0.2726   -1.5874    1.9630 H   0  0  0  0  0  0  0  0  0  0  0  0
   -0.6712   -0.6386    3.1001 H   0  0  0  0  0  0  0  0  0  0  0  0
   -3.0392    1.3409    1.0223 H   0  0  0  0  0  0  0  0  0  0  0  0
   -3.6432    0.4375   -0.3789 H   0  0  0  0  0  0  0  0  0  0  0  0
    3.1615    0.8568    1.9752 H   0  0  0  0  0  0  0  0  0  0  0  0
    2.6309   -0.6346    1.2037 H   0  0  0  0  0  0  0  0  0  0  0  0
    1.0867    1.0607    3.2294 H   0  0  0  0  0  0  0  0  0  0  0  0
    1.8044   -0.5244    3.5050 H   0  0  0  0  0  0  0  0  0  0  0  0
    3.6338    1.5902   -0.1621 H   0  0  0  0  0  0  0  0  0  0  0  0
    2.3593    2.3204   -1.0994 H   0  0  0  0  0  0  0  0  0  0  0  0
   -2.0694    3.8730   -1.4808 H   0  0  0  0  0  0  0  0  0  0  0  0
   -2.3128    3.6238    0.2581 H   0  0  0  0  0  0  0  0  0  0  0  0
   -3.6053    3.2221   -0.8872 H   0  0  0  0  0  0  0  0  0  0  0  0
    1.9840   -1.4872   -2.4118 H   0  0  0  0  0  0  0  0  0  0  0  0
    3.5879    0.3005   -2.2652 H   0  0  0  0  0  0  0  0  0  0  0  0
   -0.6420   -3.6701   -1.0875 H   0  0  0  0  0  0  0  0  0  0  0  0
  1 16  1  0  0  0  0
  1 40  1  0  0  0  0
  2 14  2  0  0  0  0
  3  4  1  0  0  0  0
  3 12  1  0  0  0  0
  3 15  1  0  0  0  0
  4  5  1  0  0  0  0
  4  7  1  0  0  0  0
  4 11  1  0  0  0  0
  5  6  1  0  0  0  0
  5  9  1  0  0  0  0
  5 20  1  0  0  0  0
  6 10  1  0  0  0  0
  6 14  1  0  0  0  0
  6 21  1  0  0  0  0
  7  8  1  0  0  0  0
  7 22  1  0  0  0  0
  7 23  1  0  0  0  0
  8 10  1  0  0  0  0
  8 17  1  0  0  0  0
  8 24  1  0  0  0  0
  9 13  1  0  0  0  0
  9 25  1  0  0  0  0
  9 26  1  0  0  0  0
 10 27  1  0  0  0  0
 10 28  1  0  0  0  0
 11 16  2  0  0  0  0
 11 18  1  0  0  0  0
 12 13  1  0  0  0  0
 12 29  1  0  0  0  0
 12 30  1  0  0  0  0
 13 31  1  0  0  0  0
 13 32  1  0  0  0  0
 14 16  1  0  0  0  0
 15 19  1  0  0  0  0
 15 33  1  0  0  0  0
 15 34  1  0  0  0  0
 17 35  1  0  0  0  0
 17 36  1  0  0  0  0
 17 37  1  0  0  0  0
 18 19  2  0  0  0  0
 18 38  1  0  0  0  0
 19 39  1  0  0  0  0
M  END
> <PUBCHEM_COMPOUND_CID>
102588705

> <PUBCHEM_CONFORMER_RMSD>
0.6

> <PUBCHEM_CONFORMER_DIVERSEORDER>
1

> <PUBCHEM_MMFF94_PARTIAL_CHARGES>
15
1 -0.53
11 -0.14
12 0.27
14 0.49
15 0.41
16 0.09
18 -0.15
19 -0.29
2 -0.57
3 -0.81
38 0.15
39 0.15
4 0.41
40 0.45
6 0.06

> <PUBCHEM_EFFECTIVE_ROTOR_COUNT>
1.4

> <PUBCHEM_PHARMACOPHORE_FEATURES>
7
1 1 donor
1 2 acceptor
1 3 cation
6 3 4 11 15 18 19 rings
6 3 4 5 9 12 13 rings
6 4 5 6 11 14 16 rings
6 4 5 6 7 8 10 rings

> <PUBCHEM_HEAVY_ATOM_COUNT>
19

> <PUBCHEM_ATOM_DEF_STEREO_COUNT>
4

> <PUBCHEM_ATOM_UDEF_STEREO_COUNT>
0

> <PUBCHEM_BOND_DEF_STEREO_COUNT>
0

> <PUBCHEM_BOND_UDEF_STEREO_COUNT>
0

> <PUBCHEM_ISOTOPIC_ATOM_COUNT>
0

> <PUBCHEM_COMPONENT_COUNT>
1

> <PUBCHEM_CACTVS_TAUTO_COUNT>
47

> <PUBCHEM_CONFORMER_ID>
061D612100000001

> <PUBCHEM_MMFF94_ENERGY>
91.3086

> <PUBCHEM_FEATURE_SELFOVERLAP>
36.5

> <PUBCHEM_SHAPE_FINGERPRINT>
10863032 1 18269291186500220550
10948715 1 17751096742181711124
12423570 1 17693109864589739683
12654903 92 17693386950263173071
12716301 132 18271230716369026274
13299463 15 18127711356115786605
13538477 17 17895460518590421257
13898156 1 17897698046254116874
141345 1 17412132738986838698
144361 1 17981350067763859098
14817 1 17978469256988786969
15852999 172 18126540372021601145
15881359 60 17556555962238561279
16945 1 18261114096944307117
18721546 61 18042424562831997756
18981168 100 17908986509226163377
21524375 3 17750246806692838333
22112679 90 18116698815440478467
23419403 2 17418092156650314762
23493267 7 17605862255431864501
23526113 38 17775007864495249996
23559900 14 18056494868095770718
2748010 2 18199203930105372839
430814 3 16661794075421760460
68419 9 17895176818720372592
81228 2 17911789481965765751

> <PUBCHEM_SHAPE_MULTIPOLES>
374.29
3.6
2.84
2.09
0.82
1.03
1.26
-2.28
-0.72
1.71
-1.12
-1.52
0.31
0.48

> <PUBCHEM_SHAPE_SELFOVERLAP>
809.391

> <PUBCHEM_SHAPE_VOLUME>
202.6

> <PUBCHEM_COORDINATE_TYPE>
2
5
10

$$$$
