102026861
  -OEChem-09082015153D

 46 49  0     1  0  0  0  0  0999 V2000
   -0.7067   -0.0238    2.1012 O   0  0  0  0  0  0  0  0  0  0  0  0
   -2.1073    0.6371   -2.0073 O   0  5  0  0  0  0  0  0  0  0  0  0
    3.5128    1.0216    0.8137 O   0  0  0  0  0  0  0  0  0  0  0  0
    0.9296   -3.2891   -0.5583 O   0  0  0  0  0  0  0  0  0  0  0  0
   -1.7730    0.7958   -0.6692 N   0  3  1  0  0  0  0  0  0  0  0  0
   -0.4223    0.0648   -0.3563 C   0  0  1  0  0  0  0  0  0  0  0  0
    0.1412    0.4715    1.0516 C   0  0  2  0  0  0  0  0  0  0  0  0
   -0.6565   -1.4871   -0.4418 C   0  0  2  0  0  0  0  0  0  0  0  0
    1.5108   -0.2286    1.2369 C   0  0  2  0  0  0  0  0  0  0  0  0
    0.6266    0.4043   -1.4997 C   0  0  0  0  0  0  0  0  0  0  0  0
    0.1916    1.9933    1.2853 C   0  0  0  0  0  0  0  0  0  0  0  0
    2.0233    0.8652   -1.0687 C   0  0  1  0  0  0  0  0  0  0  0  0
    2.5657    0.1531    0.1752 C   0  0  1  0  0  0  0  0  0  0  0  0
   -1.6394    2.2911   -0.4179 C   0  0  0  0  0  0  0  0  0  0  0  0
   -2.9379    0.2435    0.1344 C   0  0  0  0  0  0  0  0  0  0  0  0
    1.3111   -1.7606    1.2423 C   0  0  0  0  0  0  0  0  0  0  0  0
   -1.8783   -2.0278    0.3041 C   0  0  0  0  0  0  0  0  0  0  0  0
   -1.1475    2.6537    0.9735 C   0  0  0  0  0  0  0  0  0  0  0  0
    0.5847   -2.2502    0.0073 C   0  0  0  0  0  0  0  0  0  0  0  0
   -3.1313   -1.2510   -0.0600 C   0  0  0  0  0  0  0  0  0  0  0  0
    3.0028    0.7232   -2.2463 C   0  0  0  0  0  0  0  0  0  0  0  0
   -0.8138   -1.7473   -1.4990 H   0  0  0  0  0  0  0  0  0  0  0  0
    1.8922    0.0215    2.2372 H   0  0  0  0  0  0  0  0  0  0  0  0
    0.7430   -0.4664   -2.1589 H   0  0  0  0  0  0  0  0  0  0  0  0
    0.2381    1.1789   -2.1709 H   0  0  0  0  0  0  0  0  0  0  0  0
    0.9640    2.4931    0.7034 H   0  0  0  0  0  0  0  0  0  0  0  0
    0.4347    2.2023    2.3356 H   0  0  0  0  0  0  0  0  0  0  0  0
    1.9878    1.9438   -0.8834 H   0  0  0  0  0  0  0  0  0  0  0  0
    3.1361   -0.7324   -0.1303 H   0  0  0  0  0  0  0  0  0  0  0  0
   -2.6285    2.7240   -0.6086 H   0  0  0  0  0  0  0  0  0  0  0  0
   -0.9577    2.6797   -1.1816 H   0  0  0  0  0  0  0  0  0  0  0  0
   -3.8273    0.7815   -0.2161 H   0  0  0  0  0  0  0  0  0  0  0  0
   -2.7920    0.4897    1.1857 H   0  0  0  0  0  0  0  0  0  0  0  0
    0.7335   -2.0792    2.1172 H   0  0  0  0  0  0  0  0  0  0  0  0
    2.2810   -2.2680    1.3053 H   0  0  0  0  0  0  0  0  0  0  0  0
   -1.7323   -2.0238    1.3886 H   0  0  0  0  0  0  0  0  0  0  0  0
   -2.0256   -3.0841    0.0431 H   0  0  0  0  0  0  0  0  0  0  0  0
   -1.8866    2.3755    1.7320 H   0  0  0  0  0  0  0  0  0  0  0  0
   -1.0371    3.7422    1.0445 H   0  0  0  0  0  0  0  0  0  0  0  0
   -3.3972   -1.4618   -1.1029 H   0  0  0  0  0  0  0  0  0  0  0  0
   -3.9708   -1.5966    0.5536 H   0  0  0  0  0  0  0  0  0  0  0  0
   -0.2888    0.1791    2.9555 H   0  0  0  0  0  0  0  0  0  0  0  0
    2.6425    1.2773   -3.1197 H   0  0  0  0  0  0  0  0  0  0  0  0
    3.1264   -0.3256   -2.5371 H   0  0  0  0  0  0  0  0  0  0  0  0
    3.9888    1.1198   -1.9820 H   0  0  0  0  0  0  0  0  0  0  0  0
    3.9442    0.5139    1.5221 H   0  0  0  0  0  0  0  0  0  0  0  0
  1  7  1  0  0  0  0
  1 42  1  0  0  0  0
  2  5  1  0  0  0  0
  3 13  1  0  0  0  0
  3 46  1  0  0  0  0
  4 19  2  0  0  0  0
  5  6  1  0  0  0  0
  5 14  1  0  0  0  0
  5 15  1  0  0  0  0
  6  7  1  0  0  0  0
  6  8  1  0  0  0  0
  6 10  1  0  0  0  0
  7  9  1  0  0  0  0
  7 11  1  0  0  0  0
  8 17  1  0  0  0  0
  8 19  1  0  0  0  0
  8 22  1  0  0  0  0
  9 13  1  0  0  0  0
  9 16  1  0  0  0  0
  9 23  1  0  0  0  0
 10 12  1  0  0  0  0
 10 24  1  0  0  0  0
 10 25  1  0  0  0  0
 11 18  1  0  0  0  0
 11 26  1  0  0  0  0
 11 27  1  0  0  0  0
 12 13  1  0  0  0  0
 12 21  1  0  0  0  0
 12 28  1  0  0  0  0
 13 29  1  0  0  0  0
 14 18  1  0  0  0  0
 14 30  1  0  0  0  0
 14 31  1  0  0  0  0
 15 20  1  0  0  0  0
 15 32  1  0  0  0  0
 15 33  1  0  0  0  0
 16 19  1  0  0  0  0
 16 34  1  0  0  0  0
 16 35  1  0  0  0  0
 17 20  1  0  0  0  0
 17 36  1  0  0  0  0
 17 37  1  0  0  0  0
 18 38  1  0  0  0  0
 18 39  1  0  0  0  0
 20 40  1  0  0  0  0
 20 41  1  0  0  0  0
 21 43  1  0  0  0  0
 21 44  1  0  0  0  0
 21 45  1  0  0  0  0
M  CHG  2   2  -1   5   1
M  END
> <PUBCHEM_COMPOUND_CID>
102026861

> <PUBCHEM_CONFORMER_RMSD>
0.6

> <PUBCHEM_CONFORMER_DIVERSEORDER>
1
2

> <PUBCHEM_MMFF94_PARTIAL_CHARGES>
15
1 -0.68
13 0.28
14 0.26
15 0.26
16 0.06
19 0.45
2 -0.75
3 -0.68
4 -0.57
42 0.4
46 0.4
5 -0.02
6 0.26
7 0.28
8 0.06

> <PUBCHEM_EFFECTIVE_ROTOR_COUNT>
2

> <PUBCHEM_PHARMACOPHORE_FEATURES>
10
1 1 acceptor
1 1 donor
1 2 anion
1 3 acceptor
1 3 donor
1 4 acceptor
6 5 6 7 11 14 18 rings
6 5 6 8 15 17 20 rings
6 6 7 8 9 16 19 rings
6 6 7 9 10 12 13 rings

> <PUBCHEM_HEAVY_ATOM_COUNT>
21

> <PUBCHEM_ATOM_DEF_STEREO_COUNT>
6

> <PUBCHEM_ATOM_UDEF_STEREO_COUNT>
1

> <PUBCHEM_BOND_DEF_STEREO_COUNT>
0

> <PUBCHEM_BOND_UDEF_STEREO_COUNT>
0

> <PUBCHEM_ISOTOPIC_ATOM_COUNT>
0

> <PUBCHEM_COMPONENT_COUNT>
1

> <PUBCHEM_CACTVS_TAUTO_COUNT>
3

> <PUBCHEM_CONFORMER_ID>
0614CE6D00000001

> <PUBCHEM_MMFF94_ENERGY>
82.1343

> <PUBCHEM_FEATURE_SELFOVERLAP>
52.251

> <PUBCHEM_SHAPE_FINGERPRINT>
10863032 1 18263067847386240617
10948715 1 18261663796828707264
12423570 1 17968085383297719287
13140716 1 18194965373263065009
141345 1 17829372087364771764
14142880 1 17897191154135462516
14181834 199 17974548231215734782
14251745 187 16607740279908967676
144361 1 17967817162510910873
14817 1 17765120128515567334
15001771 113 17909546164427406667
15881359 60 17681872748369208514
1601671 61 18339375157746864195
16945 1 17676762175400097307
17492 54 17388828770656998407
18981168 100 18195539094524978884
22344851 341 18042396941929199875
22802520 49 17559975241669467284
2334 1 17906725161488467609
23419403 2 16461280490734479714
23559900 14 18271802493472258224
2748010 2 17979332472748881449
3060560 45 18057031626663659967
5845 1 17191541269260920482
589210 1 18125444098651479843

> <PUBCHEM_SHAPE_MULTIPOLES>
403.71
3.98
2.8
1.76
0.66
0.8
0.27
-0.43
0.96
-0.63
-0.34
0.71
-0.5
-0.23

> <PUBCHEM_SHAPE_SELFOVERLAP>
867.238

> <PUBCHEM_SHAPE_VOLUME>
216.3

> <PUBCHEM_COORDINATE_TYPE>
2
5
10

$$$$
