102442792
  -OEChem-09082015043D

 41 44  0     1  0  0  0  0  0999 V2000
   -0.3350   -3.4671   -0.2417 O   0  0  0  0  0  0  0  0  0  0  0  0
   -1.3314    1.4023    0.2639 N   0  0  2  0  0  0  0  0  0  0  0  0
   -0.3002    0.3472    0.2201 C   0  0  1  0  0  0  0  0  0  0  0  0
   -0.9565   -1.0907    0.0237 C   0  0  2  0  0  0  0  0  0  0  0  0
    0.5891    0.3793   -0.9644 C   0  0  0  0  0  0  0  0  0  0  0  0
    1.6703   -0.6221   -0.6789 C   0  0  2  0  0  0  0  0  0  0  0  0
    0.7130    0.6118    1.4410 C   0  0  0  0  0  0  0  0  0  0  0  0
    2.2162    1.0451    1.0078 C   0  0  2  0  0  0  0  0  0  0  0  0
    2.8497    0.1426   -0.1526 C   0  0  0  0  0  0  0  0  0  0  0  0
   -1.8845   -1.3932    1.1916 C   0  0  0  0  0  0  0  0  0  0  0  0
    1.2618   -1.9358   -1.2788 C   0  0  0  0  0  0  0  0  0  0  0  0
   -0.0238   -2.2930   -0.4429 C   0  0  0  0  0  0  0  0  0  0  0  0
   -2.3602    1.1164    1.2792 C   0  0  0  0  0  0  0  0  0  0  0  0
   -1.8928    1.7171   -1.0553 C   0  0  0  0  0  0  0  0  0  0  0  0
   -2.9553   -0.2989    1.2524 C   0  0  0  0  0  0  0  0  0  0  0  0
    0.3998    1.1755   -2.0219 C   0  0  0  0  0  0  0  0  0  0  0  0
   -0.7920    2.0871   -2.0705 C   0  0  0  0  0  0  0  0  0  0  0  0
    3.1316    1.0764    2.2273 C   0  0  0  0  0  0  0  0  0  0  0  0
   -1.6106   -1.0266   -0.8632 H   0  0  0  0  0  0  0  0  0  0  0  0
    1.5536   -1.0685    0.3233 H   0  0  0  0  0  0  0  0  0  0  0  0
    0.7552   -0.2755    2.0871 H   0  0  0  0  0  0  0  0  0  0  0  0
    0.3384    1.4153    2.0889 H   0  0  0  0  0  0  0  0  0  0  0  0
    2.1466    2.0705    0.6177 H   0  0  0  0  0  0  0  0  0  0  0  0
    3.6193   -0.5307    0.2442 H   0  0  0  0  0  0  0  0  0  0  0  0
    3.3222    0.7734   -0.9136 H   0  0  0  0  0  0  0  0  0  0  0  0
   -1.3240   -1.4348    2.1320 H   0  0  0  0  0  0  0  0  0  0  0  0
   -2.3669   -2.3692    1.0681 H   0  0  0  0  0  0  0  0  0  0  0  0
    2.0194   -2.7098   -1.1208 H   0  0  0  0  0  0  0  0  0  0  0  0
    1.0048   -1.8769   -2.3401 H   0  0  0  0  0  0  0  0  0  0  0  0
   -3.1703    1.8534    1.2121 H   0  0  0  0  0  0  0  0  0  0  0  0
   -1.9189    1.2765    2.2708 H   0  0  0  0  0  0  0  0  0  0  0  0
   -2.5750    2.5724   -0.9737 H   0  0  0  0  0  0  0  0  0  0  0  0
   -2.4864    0.8839   -1.4500 H   0  0  0  0  0  0  0  0  0  0  0  0
   -3.6193   -0.3953    0.3842 H   0  0  0  0  0  0  0  0  0  0  0  0
   -3.5784   -0.4494    2.1415 H   0  0  0  0  0  0  0  0  0  0  0  0
    1.0989    1.1751   -2.8510 H   0  0  0  0  0  0  0  0  0  0  0  0
   -0.4484    3.1127   -1.8883 H   0  0  0  0  0  0  0  0  0  0  0  0
   -1.2220    2.0637   -3.0785 H   0  0  0  0  0  0  0  0  0  0  0  0
    4.1307    1.4300    1.9528 H   0  0  0  0  0  0  0  0  0  0  0  0
    3.2317    0.0798    2.6697 H   0  0  0  0  0  0  0  0  0  0  0  0
    2.7340    1.7495    2.9936 H   0  0  0  0  0  0  0  0  0  0  0  0
  1 12  2  0  0  0  0
  2  3  1  0  0  0  0
  2 13  1  0  0  0  0
  2 14  1  0  0  0  0
  3  4  1  0  0  0  0
  3  5  1  0  0  0  0
  3  7  1  0  0  0  0
  4 10  1  0  0  0  0
  4 12  1  0  0  0  0
  4 19  1  0  0  0  0
  5  6  1  0  0  0  0
  5 16  2  0  0  0  0
  6  9  1  0  0  0  0
  6 11  1  0  0  0  0
  6 20  1  0  0  0  0
  7  8  1  0  0  0  0
  7 21  1  0  0  0  0
  7 22  1  0  0  0  0
  8  9  1  0  0  0  0
  8 18  1  0  0  0  0
  8 23  1  0  0  0  0
  9 24  1  0  0  0  0
  9 25  1  0  0  0  0
 10 15  1  0  0  0  0
 10 26  1  0  0  0  0
 10 27  1  0  0  0  0
 11 12  1  0  0  0  0
 11 28  1  0  0  0  0
 11 29  1  0  0  0  0
 13 15  1  0  0  0  0
 13 30  1  0  0  0  0
 13 31  1  0  0  0  0
 14 17  1  0  0  0  0
 14 32  1  0  0  0  0
 14 33  1  0  0  0  0
 15 34  1  0  0  0  0
 15 35  1  0  0  0  0
 16 17  1  0  0  0  0
 16 36  1  0  0  0  0
 17 37  1  0  0  0  0
 17 38  1  0  0  0  0
 18 39  1  0  0  0  0
 18 40  1  0  0  0  0
 18 41  1  0  0  0  0
M  END
> <PUBCHEM_COMPOUND_CID>
102442792

> <PUBCHEM_CONFORMER_RMSD>
0.6

> <PUBCHEM_CONFORMER_DIVERSEORDER>
1

> <PUBCHEM_MMFF94_PARTIAL_CHARGES>
13
1 -0.57
11 0.06
12 0.45
13 0.27
14 0.27
16 -0.29
17 0.14
2 -0.81
3 0.41
36 0.15
4 0.06
5 -0.28
6 0.14

> <PUBCHEM_EFFECTIVE_ROTOR_COUNT>
1.8

> <PUBCHEM_PHARMACOPHORE_FEATURES>
6
1 1 acceptor
1 2 cation
6 2 3 4 10 13 15 rings
6 2 3 5 14 16 17 rings
6 3 4 5 6 11 12 rings
6 3 5 6 7 8 9 rings

> <PUBCHEM_HEAVY_ATOM_COUNT>
18

> <PUBCHEM_ATOM_DEF_STEREO_COUNT>
4

> <PUBCHEM_ATOM_UDEF_STEREO_COUNT>
0

> <PUBCHEM_BOND_DEF_STEREO_COUNT>
0

> <PUBCHEM_BOND_UDEF_STEREO_COUNT>
0

> <PUBCHEM_ISOTOPIC_ATOM_COUNT>
0

> <PUBCHEM_COMPONENT_COUNT>
1

> <PUBCHEM_CACTVS_TAUTO_COUNT>
3

> <PUBCHEM_CONFORMER_ID>
061B272800000001

> <PUBCHEM_MMFF94_ENERGY>
113.8173

> <PUBCHEM_FEATURE_SELFOVERLAP>
31.311

> <PUBCHEM_SHAPE_FINGERPRINT>
10863032 1 16917072212806392895
10948715 1 16343712061749805321
12423570 1 17537197724170212877
12491281 212 15195282070943529912
12716301 132 17606398748476341748
13024252 1 15432526894540277880
13027679 85 17549281232521528894
13132413 78 16540723946705140869
13172582 1 18115885138080945891
13898156 1 17400097751039431479
141345 1 17761443150819982956
144361 1 17756753802346729245
14817 1 17556308597876304020
15852999 172 18044078082396805877
15881359 60 18261667160157190071
15906896 17 17172320444138740156
16945 1 18197499730105540354
18981168 100 17842826987722877344
19765921 60 17268858690217961788
19930374 2 18261661627943965315
20600515 1 17400891573076689622
22112679 90 17756998070227548156
22802520 49 17393622284956062445
22892500 29 17914904140667013033
23388829 49 17327180351851695292
23419403 2 17905315230819986770
23526113 38 16892567057686876159
2748010 2 18191607284089157263
3286 77 18059025968619682127
34934 24 17533234182389394933
394222 165 17269710755894738069
5255222 1 17903657193218673567
568465 68 18052260592143879002
5845 1 17833530663594871976
68419 9 17327758686356709455
81228 2 18124299769362002718

> <PUBCHEM_SHAPE_MULTIPOLES>
359.58
3.62
2.64
2.07
0.78
1.88
-0.05
-0.93
-2.29
-0.69
1.05
0.48
-0.98
1.1

> <PUBCHEM_SHAPE_SELFOVERLAP>
771.822

> <PUBCHEM_SHAPE_VOLUME>
196.6

> <PUBCHEM_COORDINATE_TYPE>
2
5
10

$$$$
