101408072
  -OEChem-09082016183D

 87 91  0     1  0  0  0  0  0999 V2000
   -2.6301   -2.3934    1.4669 O   0  0  0  0  0  0  0  0  0  0  0  0
   -1.2264   -3.0300   -1.8856 O   0  0  0  0  0  0  0  0  0  0  0  0
    5.3829    3.0141   -0.5331 O   0  0  0  0  0  0  0  0  0  0  0  0
   -6.3332    0.3144   -0.4698 O   0  0  0  0  0  0  0  0  0  0  0  0
    6.9003    0.9219    0.4400 O   0  0  0  0  0  0  0  0  0  0  0  0
    1.0786   -0.9133   -0.5393 C   0  0  1  0  0  0  0  0  0  0  0  0
    1.0893   -2.1178    0.4616 C   0  0  2  0  0  0  0  0  0  0  0  0
    2.4959   -0.1972   -0.7976 C   0  0  2  0  0  0  0  0  0  0  0  0
   -2.0600   -1.1793   -0.5257 C   0  0  2  0  0  0  0  0  0  0  0  0
   -2.7356    0.2738   -0.5962 C   0  0  2  0  0  0  0  0  0  0  0  0
   -1.5449   -1.5976    0.9016 C   0  0  2  0  0  0  0  0  0  0  0  0
    3.1666    0.1199    0.5847 C   0  0  2  0  0  0  0  0  0  0  0  0
   -0.3421   -2.5700    0.9168 C   0  0  0  0  0  0  0  0  0  0  0  0
   -3.5405    0.4785    0.7394 C   0  0  2  0  0  0  0  0  0  0  0  0
    0.2933   -1.1866   -1.8425 C   0  0  0  0  0  0  0  0  0  0  0  0
   -1.1832   -1.5999   -1.7431 C   0  0  1  0  0  0  0  0  0  0  0  0
    1.8759   -1.7247    1.7409 C   0  0  0  0  0  0  0  0  0  0  0  0
    4.5133    0.9499    0.5278 C   0  0  2  0  0  0  0  0  0  0  0  0
    3.2533   -1.1255    1.4815 C   0  0  0  0  0  0  0  0  0  0  0  0
   -1.3866   -0.4228    1.8766 C   0  0  0  0  0  0  0  0  0  0  0  0
   -4.6413    1.6112    0.7665 C   0  0  0  0  0  0  0  0  0  0  0  0
    2.2386    1.1679   -1.5321 C   0  0  0  0  0  0  0  0  0  0  0  0
   -2.6178    0.4843    1.9776 C   0  0  0  0  0  0  0  0  0  0  0  0
   -3.7262    0.2941   -1.8027 C   0  0  0  0  0  0  0  0  0  0  0  0
    1.7488   -3.3950   -0.1221 C   0  0  0  0  0  0  0  0  0  0  0  0
    4.5452    1.8745   -0.7266 C   0  0  1  0  0  0  0  0  0  0  0  0
    3.4092   -1.0499   -1.7112 C   0  0  0  0  0  0  0  0  0  0  0  0
    3.1543    2.3286   -1.1384 C   0  0  0  0  0  0  0  0  0  0  0  0
   -5.5347    1.5007   -0.5023 C   0  0  1  0  0  0  0  0  0  0  0  0
   -1.6925    1.3794   -0.8433 C   0  0  0  0  0  0  0  0  0  0  0  0
   -4.7192    1.4568   -1.7920 C   0  0  0  0  0  0  0  0  0  0  0  0
    5.7814    0.0667    0.5010 C   0  0  0  0  0  0  0  0  0  0  0  0
    4.6052    1.7964    1.8283 C   0  0  0  0  0  0  0  0  0  0  0  0
   -5.5288    1.4189    2.0276 C   0  0  0  0  0  0  0  0  0  0  0  0
   -4.0891    3.0509    0.8648 C   0  0  0  0  0  0  0  0  0  0  0  0
    0.5165   -0.1277   -0.0360 H   0  0  0  0  0  0  0  0  0  0  0  0
   -2.9312   -1.8440   -0.6623 H   0  0  0  0  0  0  0  0  0  0  0  0
    2.4435    0.7816    1.0903 H   0  0  0  0  0  0  0  0  0  0  0  0
   -0.6432   -3.4643    0.3550 H   0  0  0  0  0  0  0  0  0  0  0  0
   -0.2568   -2.9773    1.9369 H   0  0  0  0  0  0  0  0  0  0  0  0
   -4.1322   -0.4460    0.8370 H   0  0  0  0  0  0  0  0  0  0  0  0
    0.3187   -0.2818   -2.4579 H   0  0  0  0  0  0  0  0  0  0  0  0
    0.8266   -1.9369   -2.4357 H   0  0  0  0  0  0  0  0  0  0  0  0
   -1.6734   -1.2398   -2.6537 H   0  0  0  0  0  0  0  0  0  0  0  0
    1.9981   -2.6008    2.3919 H   0  0  0  0  0  0  0  0  0  0  0  0
    1.2994   -0.9994    2.3262 H   0  0  0  0  0  0  0  0  0  0  0  0
    3.6837   -0.8611    2.4540 H   0  0  0  0  0  0  0  0  0  0  0  0
    3.9177   -1.8812    1.0527 H   0  0  0  0  0  0  0  0  0  0  0  0
   -0.5260    0.1985    1.6270 H   0  0  0  0  0  0  0  0  0  0  0  0
   -1.1769   -0.8023    2.8861 H   0  0  0  0  0  0  0  0  0  0  0  0
    2.3064    1.0195   -2.6180 H   0  0  0  0  0  0  0  0  0  0  0  0
    1.2168    1.5177   -1.3499 H   0  0  0  0  0  0  0  0  0  0  0  0
   -3.2008    0.1664    2.8511 H   0  0  0  0  0  0  0  0  0  0  0  0
   -2.2628    1.4936    2.2064 H   0  0  0  0  0  0  0  0  0  0  0  0
   -4.3009   -0.6408   -1.8274 H   0  0  0  0  0  0  0  0  0  0  0  0
   -3.1748    0.3317   -2.7499 H   0  0  0  0  0  0  0  0  0  0  0  0
    1.2947   -3.6940   -1.0710 H   0  0  0  0  0  0  0  0  0  0  0  0
    1.6286   -4.2396    0.5686 H   0  0  0  0  0  0  0  0  0  0  0  0
    2.8205   -3.2991   -0.2828 H   0  0  0  0  0  0  0  0  0  0  0  0
    4.9917    1.3417   -1.5718 H   0  0  0  0  0  0  0  0  0  0  0  0
    4.2118   -0.4624   -2.1619 H   0  0  0  0  0  0  0  0  0  0  0  0
    2.8665   -1.4801   -2.5560 H   0  0  0  0  0  0  0  0  0  0  0  0
    3.9009   -1.8647   -1.1816 H   0  0  0  0  0  0  0  0  0  0  0  0
    3.2135    3.0435   -1.9687 H   0  0  0  0  0  0  0  0  0  0  0  0
    2.6992    2.8944   -0.3148 H   0  0  0  0  0  0  0  0  0  0  0  0
   -6.2316    2.3469   -0.5409 H   0  0  0  0  0  0  0  0  0  0  0  0
   -0.9923    1.5074   -0.0182 H   0  0  0  0  0  0  0  0  0  0  0  0
   -2.1454    2.3540   -1.0181 H   0  0  0  0  0  0  0  0  0  0  0  0
   -1.1170    1.1806   -1.7495 H   0  0  0  0  0  0  0  0  0  0  0  0
   -4.1998    2.4059   -1.9551 H   0  0  0  0  0  0  0  0  0  0  0  0
   -5.3957    1.3277   -2.6466 H   0  0  0  0  0  0  0  0  0  0  0  0
   -2.3879   -2.6372    2.3766 H   0  0  0  0  0  0  0  0  0  0  0  0
    5.8026   -0.5948   -0.3686 H   0  0  0  0  0  0  0  0  0  0  0  0
    5.8744   -0.5446    1.4041 H   0  0  0  0  0  0  0  0  0  0  0  0
    3.7569    2.4857    1.9073 H   0  0  0  0  0  0  0  0  0  0  0  0
    4.5990    1.1643    2.7224 H   0  0  0  0  0  0  0  0  0  0  0  0
    5.5152    2.4038    1.8776 H   0  0  0  0  0  0  0  0  0  0  0  0
   -6.3980    2.0866    1.9993 H   0  0  0  0  0  0  0  0  0  0  0  0
   -4.9140    3.7674    0.9696 H   0  0  0  0  0  0  0  0  0  0  0  0
   -4.9792    1.6432    2.9481 H   0  0  0  0  0  0  0  0  0  0  0  0
   -5.9050    0.3931    2.1062 H   0  0  0  0  0  0  0  0  0  0  0  0
   -3.5327    3.3665   -0.0154 H   0  0  0  0  0  0  0  0  0  0  0  0
   -3.4466    3.1909    1.7384 H   0  0  0  0  0  0  0  0  0  0  0  0
   -0.8568   -3.2546   -2.7565 H   0  0  0  0  0  0  0  0  0  0  0  0
    5.3808    3.5267   -1.3593 H   0  0  0  0  0  0  0  0  0  0  0  0
   -6.9140    0.3280   -1.2495 H   0  0  0  0  0  0  0  0  0  0  0  0
    7.6935    0.3598    0.4227 H   0  0  0  0  0  0  0  0  0  0  0  0
  1 11  1  0  0  0  0
  1 72  1  0  0  0  0
  2 16  1  0  0  0  0
  2 84  1  0  0  0  0
  3 26  1  0  0  0  0
  3 85  1  0  0  0  0
  4 29  1  0  0  0  0
  4 86  1  0  0  0  0
  5 32  1  0  0  0  0
  5 87  1  0  0  0  0
  6  7  1  0  0  0  0
  6  8  1  0  0  0  0
  6 15  1  0  0  0  0
  6 36  1  0  0  0  0
  7 13  1  0  0  0  0
  7 17  1  0  0  0  0
  7 25  1  0  0  0  0
  8 12  1  0  0  0  0
  8 22  1  0  0  0  0
  8 27  1  0  0  0  0
  9 10  1  0  0  0  0
  9 11  1  0  0  0  0
  9 16  1  0  0  0  0
  9 37  1  0  0  0  0
 10 14  1  0  0  0  0
 10 24  1  0  0  0  0
 10 30  1  0  0  0  0
 11 13  1  0  0  0  0
 11 20  1  0  0  0  0
 12 18  1  0  0  0  0
 12 19  1  0  0  0  0
 12 38  1  0  0  0  0
 13 39  1  0  0  0  0
 13 40  1  0  0  0  0
 14 21  1  0  0  0  0
 14 23  1  0  0  0  0
 14 41  1  0  0  0  0
 15 16  1  0  0  0  0
 15 42  1  0  0  0  0
 15 43  1  0  0  0  0
 16 44  1  0  0  0  0
 17 19  1  0  0  0  0
 17 45  1  0  0  0  0
 17 46  1  0  0  0  0
 18 26  1  0  0  0  0
 18 32  1  0  0  0  0
 18 33  1  0  0  0  0
 19 47  1  0  0  0  0
 19 48  1  0  0  0  0
 20 23  1  0  0  0  0
 20 49  1  0  0  0  0
 20 50  1  0  0  0  0
 21 29  1  0  0  0  0
 21 34  1  0  0  0  0
 21 35  1  0  0  0  0
 22 28  1  0  0  0  0
 22 51  1  0  0  0  0
 22 52  1  0  0  0  0
 23 53  1  0  0  0  0
 23 54  1  0  0  0  0
 24 31  1  0  0  0  0
 24 55  1  0  0  0  0
 24 56  1  0  0  0  0
 25 57  1  0  0  0  0
 25 58  1  0  0  0  0
 25 59  1  0  0  0  0
 26 28  1  0  0  0  0
 26 60  1  0  0  0  0
 27 61  1  0  0  0  0
 27 62  1  0  0  0  0
 27 63  1  0  0  0  0
 28 64  1  0  0  0  0
 28 65  1  0  0  0  0
 29 31  1  0  0  0  0
 29 66  1  0  0  0  0
 30 67  1  0  0  0  0
 30 68  1  0  0  0  0
 30 69  1  0  0  0  0
 31 70  1  0  0  0  0
 31 71  1  0  0  0  0
 32 73  1  0  0  0  0
 32 74  1  0  0  0  0
 33 75  1  0  0  0  0
 33 76  1  0  0  0  0
 33 77  1  0  0  0  0
 34 78  1  0  0  0  0
 34 80  1  0  0  0  0
 34 81  1  0  0  0  0
 35 79  1  0  0  0  0
 35 82  1  0  0  0  0
 35 83  1  0  0  0  0
M  END
> <PUBCHEM_COMPOUND_CID>
101408072

> <PUBCHEM_CONFORMER_RMSD>
0.8

> <PUBCHEM_CONFORMER_DIVERSEORDER>
2
1
3

> <PUBCHEM_MMFF94_PARTIAL_CHARGES>
15
1 -0.68
11 0.28
16 0.28
2 -0.68
26 0.28
29 0.28
3 -0.68
32 0.28
4 -0.68
5 -0.68
72 0.4
84 0.4
85 0.4
86 0.4
87 0.4

> <PUBCHEM_EFFECTIVE_ROTOR_COUNT>
4

> <PUBCHEM_PHARMACOPHORE_FEATURES>
16
1 1 acceptor
1 1 donor
1 2 acceptor
1 2 donor
1 3 acceptor
1 3 donor
1 4 acceptor
1 4 donor
1 5 acceptor
1 5 donor
3 21 34 35 hydrophobe
6 10 14 21 24 29 31 rings
6 6 7 8 12 17 19 rings
6 8 12 18 22 26 28 rings
6 9 10 11 14 20 23 rings
7 6 7 9 11 13 15 16 rings

> <PUBCHEM_HEAVY_ATOM_COUNT>
35

> <PUBCHEM_ATOM_DEF_STEREO_COUNT>
12

> <PUBCHEM_ATOM_UDEF_STEREO_COUNT>
0

> <PUBCHEM_BOND_DEF_STEREO_COUNT>
0

> <PUBCHEM_BOND_UDEF_STEREO_COUNT>
0

> <PUBCHEM_ISOTOPIC_ATOM_COUNT>
0

> <PUBCHEM_COMPONENT_COUNT>
1

> <PUBCHEM_CACTVS_TAUTO_COUNT>
1

> <PUBCHEM_CONFORMER_ID>
060B5D4800000002

> <PUBCHEM_MMFF94_ENERGY>
198.3085

> <PUBCHEM_FEATURE_SELFOVERLAP>
81.259

> <PUBCHEM_SHAPE_FINGERPRINT>
10319926 262 16226054366165026281
10498660 4 17203892971969669832
10622 236 11243410807424189929
10674148 151 18114185259995093940
10928967 22 8935005853943614720
11135609 12 14490468652393650106
11640471 11 18411974775987724958
11961588 58 18060410331137054867
1200032 147 17559695965810756777
12107698 1 18122626058986916778
12422481 6 16588300579553969106
12633257 1 17022906769626447240
12788726 201 18053369187564767727
13103583 49 13407079163188533165
13140716 1 18041565852904073012
13583140 156 17821727230483051085
14840074 17 18410856564241433245
14950920 106 15430036582133930312
15163728 17 18271812336566603230
15238133 3 17603871074671362572
15664445 248 15122923184754797827
18608769 82 17417522640230137415
20764821 26 18192430981386344929
20775530 9 9799425377277653348
21033648 144 18338233769860716447
21033648 29 17458910310761806445
21033650 10 16271927095515043555
21756936 100 18265618874041498412
22393880 68 14907891669856145792
23227448 37 18187366562361792427
23559900 14 18263096421904595902
2838139 119 18060133232679440352
329604 57 11887959860943429972
3459 110 17168145675839671131
392239 28 17676493830592214889
4098825 35 16630528410066110365
4340502 62 18113337492614983207
469060 322 18118694446372934947
474 4 18408602543628273847
474113 269 13840557311083522953
5081480 168 18054243028857233310
513532 50 18270122310249355758
57724786 102 18340774719319748504
6034566 193 18263367039235137165
6328613 192 18335706109263060828
7970288 3 8935005866970902360
9981440 41 18343306963735140363

> <PUBCHEM_SHAPE_MULTIPOLES>
690.94
13.21
3.28
2.15
0.87
0.69
-0.05
-11.34
-1.8
1.08
0.05
-0.91
0.19
-0.58

> <PUBCHEM_SHAPE_SELFOVERLAP>
1451.303

> <PUBCHEM_SHAPE_VOLUME>
374.2

> <PUBCHEM_COORDINATE_TYPE>
2
5
10

$$$$
