21672659
  -OEChem-09082016033D

 82 86  0     1  0  0  0  0  0999 V2000
    5.4819    3.1118   -0.0740 O   0  0  0  0  0  0  0  0  0  0  0  0
   -6.2932   -0.1165   -0.6267 O   0  0  0  0  0  0  0  0  0  0  0  0
    2.6595   -0.0761   -0.7962 C   0  0  2  0  0  0  0  0  0  0  0  0
    1.2574   -0.8351   -0.6218 C   0  0  2  0  0  0  0  0  0  0  0  0
    1.2965   -2.1918    0.1799 C   0  0  1  0  0  0  0  0  0  0  0  0
    3.3583    0.0291    0.6040 C   0  0  2  0  0  0  0  0  0  0  0  0
   -2.6970    0.1144   -0.5812 C   0  0  2  0  0  0  0  0  0  0  0  0
    4.6977    0.8719    0.6455 C   0  0  0  0  0  0  0  0  0  0  0  0
   -1.8886   -1.2545   -0.6471 C   0  0  1  0  0  0  0  0  0  0  0  0
    2.1002   -1.9810    1.4892 C   0  0  0  0  0  0  0  0  0  0  0  0
    3.4700   -1.3404    1.2951 C   0  0  0  0  0  0  0  0  0  0  0  0
    0.4369   -0.9038   -1.9374 C   0  0  0  0  0  0  0  0  0  0  0  0
    2.3717    1.3815   -1.3041 C   0  0  0  0  0  0  0  0  0  0  0  0
   -0.1367   -2.6865    0.5991 C   0  0  0  0  0  0  0  0  0  0  0  0
   -3.5666    0.0492    0.7345 C   0  0  2  0  0  0  0  0  0  0  0  0
   -0.9883   -1.4757   -1.8911 C   0  0  0  0  0  0  0  0  0  0  0  0
   -1.2038   -1.6205    0.6636 C   0  0  0  0  0  0  0  0  0  0  0  0
    4.6907    1.9839   -0.4479 C   0  0  1  0  0  0  0  0  0  0  0  0
    3.2843    2.4759   -0.7478 C   0  0  0  0  0  0  0  0  0  0  0  0
    3.5600   -0.7683   -1.8473 C   0  0  0  0  0  0  0  0  0  0  0  0
   -4.7491    1.0822    0.8739 C   0  0  0  0  0  0  0  0  0  0  0  0
   -3.6339    0.2213   -1.8138 C   0  0  0  0  0  0  0  0  0  0  0  0
    1.9265   -3.3620   -0.6091 C   0  0  0  0  0  0  0  0  0  0  0  0
   -2.6605   -0.0518    1.9829 C   0  0  0  0  0  0  0  0  0  0  0  0
   -5.5758    1.1079   -0.4448 C   0  0  1  0  0  0  0  0  0  0  0  0
   -1.5598   -1.0604    1.8325 C   0  0  0  0  0  0  0  0  0  0  0  0
   -4.7073    1.3029   -1.6866 C   0  0  0  0  0  0  0  0  0  0  0  0
   -1.7277    1.3153   -0.6011 C   0  0  0  0  0  0  0  0  0  0  0  0
    5.9677    0.0118    0.4553 C   0  0  0  0  0  0  0  0  0  0  0  0
    4.8133    1.5115    2.0578 C   0  0  0  0  0  0  0  0  0  0  0  0
   -5.6739    0.6338    2.0398 C   0  0  0  0  0  0  0  0  0  0  0  0
   -4.3104    2.5201    1.2249 C   0  0  0  0  0  0  0  0  0  0  0  0
    0.7050   -0.1451    0.0288 H   0  0  0  0  0  0  0  0  0  0  0  0
    2.6444    0.5989    1.2222 H   0  0  0  0  0  0  0  0  0  0  0  0
   -2.6628   -2.0327   -0.7583 H   0  0  0  0  0  0  0  0  0  0  0  0
    2.2343   -2.9400    2.0070 H   0  0  0  0  0  0  0  0  0  0  0  0
    1.5232   -1.3462    2.1748 H   0  0  0  0  0  0  0  0  0  0  0  0
    3.9222   -1.2267    2.2866 H   0  0  0  0  0  0  0  0  0  0  0  0
    4.1258   -2.0164    0.7387 H   0  0  0  0  0  0  0  0  0  0  0  0
    0.9804   -1.4969   -2.6809 H   0  0  0  0  0  0  0  0  0  0  0  0
    0.3726    0.0949   -2.3789 H   0  0  0  0  0  0  0  0  0  0  0  0
    1.3482    1.6843   -1.0525 H   0  0  0  0  0  0  0  0  0  0  0  0
    2.4205    1.4048   -2.4008 H   0  0  0  0  0  0  0  0  0  0  0  0
   -0.0758   -3.2021    1.5687 H   0  0  0  0  0  0  0  0  0  0  0  0
   -0.4908   -3.4751   -0.0785 H   0  0  0  0  0  0  0  0  0  0  0  0
   -4.0786   -0.9269    0.6769 H   0  0  0  0  0  0  0  0  0  0  0  0
   -1.5134   -1.1456   -2.7948 H   0  0  0  0  0  0  0  0  0  0  0  0
   -0.8966   -2.5611   -2.0404 H   0  0  0  0  0  0  0  0  0  0  0  0
    5.1402    1.6092   -1.3725 H   0  0  0  0  0  0  0  0  0  0  0  0
    3.3130    3.3162   -1.4531 H   0  0  0  0  0  0  0  0  0  0  0  0
    2.8417    2.8947    0.1657 H   0  0  0  0  0  0  0  0  0  0  0  0
    4.0414   -1.6689   -1.4693 H   0  0  0  0  0  0  0  0  0  0  0  0
    3.0097   -1.0391   -2.7514 H   0  0  0  0  0  0  0  0  0  0  0  0
    4.3679   -0.1202   -2.1932 H   0  0  0  0  0  0  0  0  0  0  0  0
   -4.1298   -0.7431   -1.9845 H   0  0  0  0  0  0  0  0  0  0  0  0
   -3.0530    0.4269   -2.7208 H   0  0  0  0  0  0  0  0  0  0  0  0
    2.9946   -3.2457   -0.7821 H   0  0  0  0  0  0  0  0  0  0  0  0
    1.8152   -4.3027   -0.0550 H   0  0  0  0  0  0  0  0  0  0  0  0
    1.4420   -3.5040   -1.5798 H   0  0  0  0  0  0  0  0  0  0  0  0
   -3.2598   -0.3518    2.8492 H   0  0  0  0  0  0  0  0  0  0  0  0
   -2.2059    0.9132    2.2275 H   0  0  0  0  0  0  0  0  0  0  0  0
   -6.3257    1.9070   -0.3962 H   0  0  0  0  0  0  0  0  0  0  0  0
   -1.0429   -1.3466    2.7449 H   0  0  0  0  0  0  0  0  0  0  0  0
   -4.2483    2.2965   -1.6850 H   0  0  0  0  0  0  0  0  0  0  0  0
   -5.3380    1.2570   -2.5836 H   0  0  0  0  0  0  0  0  0  0  0  0
   -1.0162    1.3003    0.2276 H   0  0  0  0  0  0  0  0  0  0  0  0
   -1.1553    1.3422   -1.5312 H   0  0  0  0  0  0  0  0  0  0  0  0
   -2.2398    2.2743   -0.5624 H   0  0  0  0  0  0  0  0  0  0  0  0
    6.8650    0.6419    0.4384 H   0  0  0  0  0  0  0  0  0  0  0  0
    6.1013   -0.7073    1.2704 H   0  0  0  0  0  0  0  0  0  0  0  0
    5.9484   -0.5467   -0.4838 H   0  0  0  0  0  0  0  0  0  0  0  0
    5.7561    2.0572    2.1787 H   0  0  0  0  0  0  0  0  0  0  0  0
    3.9953    2.2162    2.2435 H   0  0  0  0  0  0  0  0  0  0  0  0
    4.7845    0.7551    2.8486 H   0  0  0  0  0  0  0  0  0  0  0  0
   -6.5972    1.2251    2.0551 H   0  0  0  0  0  0  0  0  0  0  0  0
   -5.9605   -0.4195    1.9488 H   0  0  0  0  0  0  0  0  0  0  0  0
   -5.1923    0.7654    3.0146 H   0  0  0  0  0  0  0  0  0  0  0  0
   -5.1868    3.1411    1.4510 H   0  0  0  0  0  0  0  0  0  0  0  0
   -3.6697    2.5506    2.1108 H   0  0  0  0  0  0  0  0  0  0  0  0
   -3.7929    3.0284    0.4131 H   0  0  0  0  0  0  0  0  0  0  0  0
    5.4728    3.7397   -0.8164 H   0  0  0  0  0  0  0  0  0  0  0  0
   -6.8421   -0.0214   -1.4238 H   0  0  0  0  0  0  0  0  0  0  0  0
  1 18  1  0  0  0  0
  1 81  1  0  0  0  0
  2 25  1  0  0  0  0
  2 82  1  0  0  0  0
  3  4  1  0  0  0  0
  3  6  1  0  0  0  0
  3 13  1  0  0  0  0
  3 20  1  0  0  0  0
  4  5  1  0  0  0  0
  4 12  1  0  0  0  0
  4 33  1  0  0  0  0
  5 10  1  0  0  0  0
  5 14  1  0  0  0  0
  5 23  1  0  0  0  0
  6  8  1  0  0  0  0
  6 11  1  0  0  0  0
  6 34  1  0  0  0  0
  7  9  1  0  0  0  0
  7 15  1  0  0  0  0
  7 22  1  0  0  0  0
  7 28  1  0  0  0  0
  8 18  1  0  0  0  0
  8 29  1  0  0  0  0
  8 30  1  0  0  0  0
  9 16  1  0  0  0  0
  9 17  1  0  0  0  0
  9 35  1  0  0  0  0
 10 11  1  0  0  0  0
 10 36  1  0  0  0  0
 10 37  1  0  0  0  0
 11 38  1  0  0  0  0
 11 39  1  0  0  0  0
 12 16  1  0  0  0  0
 12 40  1  0  0  0  0
 12 41  1  0  0  0  0
 13 19  1  0  0  0  0
 13 42  1  0  0  0  0
 13 43  1  0  0  0  0
 14 17  1  0  0  0  0
 14 44  1  0  0  0  0
 14 45  1  0  0  0  0
 15 21  1  0  0  0  0
 15 24  1  0  0  0  0
 15 46  1  0  0  0  0
 16 47  1  0  0  0  0
 16 48  1  0  0  0  0
 17 26  2  0  0  0  0
 18 19  1  0  0  0  0
 18 49  1  0  0  0  0
 19 50  1  0  0  0  0
 19 51  1  0  0  0  0
 20 52  1  0  0  0  0
 20 53  1  0  0  0  0
 20 54  1  0  0  0  0
 21 25  1  0  0  0  0
 21 31  1  0  0  0  0
 21 32  1  0  0  0  0
 22 27  1  0  0  0  0
 22 55  1  0  0  0  0
 22 56  1  0  0  0  0
 23 57  1  0  0  0  0
 23 58  1  0  0  0  0
 23 59  1  0  0  0  0
 24 26  1  0  0  0  0
 24 60  1  0  0  0  0
 24 61  1  0  0  0  0
 25 27  1  0  0  0  0
 25 62  1  0  0  0  0
 26 63  1  0  0  0  0
 27 64  1  0  0  0  0
 27 65  1  0  0  0  0
 28 66  1  0  0  0  0
 28 67  1  0  0  0  0
 28 68  1  0  0  0  0
 29 69  1  0  0  0  0
 29 70  1  0  0  0  0
 29 71  1  0  0  0  0
 30 72  1  0  0  0  0
 30 73  1  0  0  0  0
 30 74  1  0  0  0  0
 31 75  1  0  0  0  0
 31 76  1  0  0  0  0
 31 77  1  0  0  0  0
 32 78  1  0  0  0  0
 32 79  1  0  0  0  0
 32 80  1  0  0  0  0
M  END
> <PUBCHEM_COMPOUND_CID>
21672659

> <PUBCHEM_CONFORMER_RMSD>
0.8

> <PUBCHEM_CONFORMER_DIVERSEORDER>
2
1

> <PUBCHEM_MMFF94_PARTIAL_CHARGES>
12
1 -0.68
14 0.14
17 -0.28
18 0.28
2 -0.68
24 0.14
25 0.28
26 -0.29
63 0.15
81 0.4
82 0.4
9 0.14

> <PUBCHEM_EFFECTIVE_ROTOR_COUNT>
2.8

> <PUBCHEM_PHARMACOPHORE_FEATURES>
11
1 1 acceptor
1 1 donor
1 2 acceptor
1 2 donor
3 21 31 32 hydrophobe
3 8 29 30 hydrophobe
6 3 4 5 6 10 11 rings
6 3 6 8 13 18 19 rings
6 7 15 21 22 25 27 rings
6 7 9 15 17 24 26 rings
7 4 5 9 12 14 16 17 rings

> <PUBCHEM_HEAVY_ATOM_COUNT>
32

> <PUBCHEM_ATOM_DEF_STEREO_COUNT>
9

> <PUBCHEM_ATOM_UDEF_STEREO_COUNT>
0

> <PUBCHEM_BOND_DEF_STEREO_COUNT>
0

> <PUBCHEM_BOND_UDEF_STEREO_COUNT>
0

> <PUBCHEM_ISOTOPIC_ATOM_COUNT>
0

> <PUBCHEM_COMPONENT_COUNT>
1

> <PUBCHEM_CACTVS_TAUTO_COUNT>
1

> <PUBCHEM_CONFORMER_ID>
014AB2D300000002

> <PUBCHEM_MMFF94_ENERGY>
155.3197

> <PUBCHEM_FEATURE_SELFOVERLAP>
55.869

> <PUBCHEM_SHAPE_FINGERPRINT>
10074138 170 17313956366981307323
10319926 262 16515686623910590033
10498660 4 16272205263076695067
10674148 151 18114751534269202316
11135609 201 18268995456321514833
11640471 11 18271517667450528078
11961588 58 17560791164964598723
12107698 1 18198346143584606742
12166972 35 18199745839151317010
12422481 6 17095515193399409278
12633257 1 17312825999949208098
12788726 201 16343707569525471659
13103583 49 13407076972771003925
13224815 77 18411140225165969879
13402501 40 17895188883326030101
13544653 18 7925915863543785878
13583140 156 17967813855855539283
13690498 29 14476094822836309325
14251764 30 12108050155858592504
14251764 38 18191300469006263005
14705955 166 16371551605987222429
14840074 17 18273215305156907193
15163728 17 18272093833271351342
15183329 4 11815898938416539643
15238133 3 17822014181622140428
15664445 248 14835822011260800922
19377110 9 18341896299323142547
20511986 3 17988065726194700861
20775438 99 10302654248577220324
21033648 144 18187356662124416150
21033648 29 17240482464627693413
21033650 10 15338575876383178986
21756936 100 18196093463903954172
21792934 111 16733274452943812361
22122407 14 18264492776598432353
22393880 68 14405181763839800484
23227448 37 18335421317658623511
23559900 14 17096382635149568471
23569914 152 10445433444542188569
2838139 119 17918269848759586440
329604 57 11599733882822398620
3459 110 17531532087013254163
392239 28 17894636937585080409
4098825 35 15985388871536358006
4340502 62 18114181930340404695
474 4 18410854356363992182
5081480 168 17984156863457509446
513532 50 18272938172518532566
57724786 102 18341620256651723880
6004065 56 18187921842063046205
6034566 193 18264773327381097317
7970288 3 8502384321087772624

> <PUBCHEM_SHAPE_MULTIPOLES>
646.81
13.4
2.94
2.09
4.38
0.22
0.13
-9.62
2.51
-2.73
0.08
0.86
0.06
-0.22

> <PUBCHEM_SHAPE_SELFOVERLAP>
1360.644

> <PUBCHEM_SHAPE_VOLUME>
358.1

> <PUBCHEM_COORDINATE_TYPE>
2
5
10

$$$$
