21581110
  -OEChem-09082014473D

 44 47  0     1  0  0  0  0  0999 V2000
    3.6880   -0.6007   -0.0783 O   0  0  0  0  0  0  0  0  0  0  0  0
    1.1220    1.7869    2.2125 O   0  0  0  0  0  0  0  0  0  0  0  0
   -1.9448   -0.1854   -0.9798 N   0  0  1  0  0  0  0  0  0  0  0  0
   -0.5764   -0.0706   -0.3939 C   0  0  2  0  0  0  0  0  0  0  0  0
    0.0213   -1.4846   -0.1317 C   0  0  1  0  0  0  0  0  0  0  0  0
    1.4290   -1.3414    0.4847 C   0  0  1  0  0  0  0  0  0  0  0  0
   -0.6476    0.7450    0.9350 C   0  0  2  0  0  0  0  0  0  0  0  0
    0.3587    0.5891   -1.4717 C   0  0  0  0  0  0  0  0  0  0  0  0
    1.8590    0.6292   -1.1210 C   0  0  1  0  0  0  0  0  0  0  0  0
    2.3603   -0.7222   -0.5828 C   0  0  1  0  0  0  0  0  0  0  0  0
   -0.9072   -2.3860    0.6871 C   0  0  0  0  0  0  0  0  0  0  0  0
    1.4050   -0.5527    1.8035 C   0  0  0  0  0  0  0  0  0  0  0  0
   -1.2383    2.1407    0.7148 C   0  0  0  0  0  0  0  0  0  0  0  0
    0.6870    0.7736    1.6668 C   0  0  0  0  0  0  0  0  0  0  0  0
   -2.8485   -1.0811   -0.2375 C   0  0  0  0  0  0  0  0  0  0  0  0
   -2.5827    1.1279   -1.1938 C   0  0  0  0  0  0  0  0  0  0  0  0
   -2.2577   -2.4701   -0.0098 C   0  0  0  0  0  0  0  0  0  0  0  0
   -2.6035    2.0362    0.0395 C   0  0  0  0  0  0  0  0  0  0  0  0
    2.6765    1.0663   -2.3436 C   0  0  0  0  0  0  0  0  0  0  0  0
    0.1399   -1.9919   -1.1027 H   0  0  0  0  0  0  0  0  0  0  0  0
    1.8231   -2.3393    0.7209 H   0  0  0  0  0  0  0  0  0  0  0  0
   -1.3144    0.2372    1.6451 H   0  0  0  0  0  0  0  0  0  0  0  0
    0.0475    1.6137   -1.7019 H   0  0  0  0  0  0  0  0  0  0  0  0
    0.2425    0.0300   -2.4124 H   0  0  0  0  0  0  0  0  0  0  0  0
    2.0341    1.4040   -0.3665 H   0  0  0  0  0  0  0  0  0  0  0  0
    2.4201   -1.4251   -1.4248 H   0  0  0  0  0  0  0  0  0  0  0  0
   -1.0430   -2.0151    1.7081 H   0  0  0  0  0  0  0  0  0  0  0  0
   -0.4765   -3.3907    0.7713 H   0  0  0  0  0  0  0  0  0  0  0  0
    2.4247   -0.3642    2.1568 H   0  0  0  0  0  0  0  0  0  0  0  0
    0.8953   -1.1238    2.5869 H   0  0  0  0  0  0  0  0  0  0  0  0
   -0.5639    2.7605    0.1129 H   0  0  0  0  0  0  0  0  0  0  0  0
   -1.3502    2.6622    1.6734 H   0  0  0  0  0  0  0  0  0  0  0  0
   -3.7770   -1.2072   -0.8084 H   0  0  0  0  0  0  0  0  0  0  0  0
   -3.1355   -0.6566    0.7314 H   0  0  0  0  0  0  0  0  0  0  0  0
   -3.6091    0.9916   -1.5584 H   0  0  0  0  0  0  0  0  0  0  0  0
   -2.0744    1.6481   -2.0137 H   0  0  0  0  0  0  0  0  0  0  0  0
   -2.1461   -2.9857   -0.9721 H   0  0  0  0  0  0  0  0  0  0  0  0
   -2.9478   -3.0707    0.5936 H   0  0  0  0  0  0  0  0  0  0  0  0
   -3.3334    1.6549    0.7642 H   0  0  0  0  0  0  0  0  0  0  0  0
   -2.9473    3.0367   -0.2474 H   0  0  0  0  0  0  0  0  0  0  0  0
    2.5880    0.3425   -3.1609 H   0  0  0  0  0  0  0  0  0  0  0  0
    2.3300    2.0374   -2.7130 H   0  0  0  0  0  0  0  0  0  0  0  0
    3.7375    1.1659   -2.0926 H   0  0  0  0  0  0  0  0  0  0  0  0
    3.9683   -1.4808    0.2255 H   0  0  0  0  0  0  0  0  0  0  0  0
  1 10  1  0  0  0  0
  1 44  1  0  0  0  0
  2 14  2  0  0  0  0
  3  4  1  0  0  0  0
  3 15  1  0  0  0  0
  3 16  1  0  0  0  0
  4  5  1  0  0  0  0
  4  7  1  0  0  0  0
  4  8  1  0  0  0  0
  5  6  1  0  0  0  0
  5 11  1  0  0  0  0
  5 20  1  0  0  0  0
  6 10  1  0  0  0  0
  6 12  1  0  0  0  0
  6 21  1  0  0  0  0
  7 13  1  0  0  0  0
  7 14  1  0  0  0  0
  7 22  1  0  0  0  0
  8  9  1  0  0  0  0
  8 23  1  0  0  0  0
  8 24  1  0  0  0  0
  9 10  1  0  0  0  0
  9 19  1  0  0  0  0
  9 25  1  0  0  0  0
 10 26  1  0  0  0  0
 11 17  1  0  0  0  0
 11 27  1  0  0  0  0
 11 28  1  0  0  0  0
 12 14  1  0  0  0  0
 12 29  1  0  0  0  0
 12 30  1  0  0  0  0
 13 18  1  0  0  0  0
 13 31  1  0  0  0  0
 13 32  1  0  0  0  0
 15 17  1  0  0  0  0
 15 33  1  0  0  0  0
 15 34  1  0  0  0  0
 16 18  1  0  0  0  0
 16 35  1  0  0  0  0
 16 36  1  0  0  0  0
 17 37  1  0  0  0  0
 17 38  1  0  0  0  0
 18 39  1  0  0  0  0
 18 40  1  0  0  0  0
 19 41  1  0  0  0  0
 19 42  1  0  0  0  0
 19 43  1  0  0  0  0
M  END
> <PUBCHEM_COMPOUND_CID>
21581110

> <PUBCHEM_CONFORMER_RMSD>
0.6

> <PUBCHEM_CONFORMER_DIVERSEORDER>
1

> <PUBCHEM_MMFF94_PARTIAL_CHARGES>
11
1 -0.68
10 0.28
12 0.06
14 0.45
15 0.27
16 0.27
2 -0.57
3 -0.81
4 0.27
44 0.4
7 0.06

> <PUBCHEM_EFFECTIVE_ROTOR_COUNT>
2

> <PUBCHEM_PHARMACOPHORE_FEATURES>
8
1 1 acceptor
1 1 donor
1 2 acceptor
1 3 cation
6 3 4 5 11 15 17 rings
6 3 4 7 13 16 18 rings
6 4 5 6 7 12 14 rings
6 4 5 6 8 9 10 rings

> <PUBCHEM_HEAVY_ATOM_COUNT>
19

> <PUBCHEM_ATOM_DEF_STEREO_COUNT>
6

> <PUBCHEM_ATOM_UDEF_STEREO_COUNT>
0

> <PUBCHEM_BOND_DEF_STEREO_COUNT>
0

> <PUBCHEM_BOND_UDEF_STEREO_COUNT>
0

> <PUBCHEM_ISOTOPIC_ATOM_COUNT>
0

> <PUBCHEM_COMPONENT_COUNT>
1

> <PUBCHEM_CACTVS_TAUTO_COUNT>
2

> <PUBCHEM_CONFORMER_ID>
01494D3600000001

> <PUBCHEM_MMFF94_ENERGY>
44.4454

> <PUBCHEM_FEATURE_SELFOVERLAP>
42.319

> <PUBCHEM_SHAPE_FINGERPRINT>
10863032 1 18410570682748978956
10948715 1 17750530493651201797
12423570 1 16125798756918711022
12491281 212 17968674760279832724
12654903 92 17897441701189213838
12716301 132 18341320120290136403
13898156 1 17749655372557916331
14115302 16 18337948991785012469
141345 1 8043791691790346504
144361 1 17894628179671853891
14617773 55 18188507881064051942
14817 1 15658676752364506174
16945 1 18264508332320579758
20645476 183 18042117679139993807
22112679 90 17241581997461208658
22344851 262 17896331216030629686
22802520 49 18131063870190171745
23419403 2 17414736541540996208
23559900 14 18129936768631931322
2748010 2 18055328452965475371
353137 74 17750521869372682783
394222 165 16010701974254578437
528886 8 18041837290373219359
576247 118 17487923260958408287
6992083 37 17897440597509238550

> <PUBCHEM_SHAPE_MULTIPOLES>
374.29
4.12
2.45
1.87
0.79
0.6
-0.46
-0.2
1.52
-1.51
-0.22
1.1
-0.93
-0.57

> <PUBCHEM_SHAPE_SELFOVERLAP>
802.748

> <PUBCHEM_SHAPE_VOLUME>
203.2

> <PUBCHEM_COORDINATE_TYPE>
2
5
10

$$$$
