195296
  -OEChem-09082015263D

 42 44  0     1  0  0  0  0  0999 V2000
    4.7333   -0.1493   -0.2161 O   0  0  0  0  0  0  0  0  0  0  0  0
   -1.2454   -1.3185    1.4873 N   0  0  0  0  0  0  0  0  0  0  0  0
    2.5948    0.2073   -1.0076 N   0  0  0  0  0  0  0  0  0  0  0  0
   -0.8199   -0.2069    0.6199 C   0  0  1  0  0  0  0  0  0  0  0  0
   -1.5938   -0.3009   -0.7385 C   0  0  1  0  0  0  0  0  0  0  0  0
   -1.0883    0.8579   -1.6328 C   0  0  2  0  0  0  0  0  0  0  0  0
   -1.2631    1.1158    1.3227 C   0  0  0  0  0  0  0  0  0  0  0  0
    0.7012   -0.1705    0.3726 C   0  0  0  0  0  0  0  0  0  0  0  0
    0.3978    0.6531   -1.9930 C   0  0  0  0  0  0  0  0  0  0  0  0
    1.2282    0.2016   -0.8155 C   0  0  0  0  0  0  0  0  0  0  0  0
   -1.2545    2.1907   -0.9336 C   0  0  0  0  0  0  0  0  0  0  0  0
   -1.3426    2.3162    0.4025 C   0  0  0  0  0  0  0  0  0  0  0  0
   -1.4956   -1.6225   -1.4596 C   0  0  0  0  0  0  0  0  0  0  0  0
    1.6185   -0.5212    1.4473 C   0  0  0  0  0  0  0  0  0  0  0  0
   -0.8778   -2.5944    0.8830 C   0  0  0  0  0  0  0  0  0  0  0  0
   -2.6839   -1.2492    1.7205 C   0  0  0  0  0  0  0  0  0  0  0  0
   -1.5250    3.6486    1.0657 C   0  0  0  0  0  0  0  0  0  0  0  0
    2.9465   -0.5225    1.2776 C   0  0  0  0  0  0  0  0  0  0  0  0
    3.5178   -0.1450   -0.0409 C   0  0  0  0  0  0  0  0  0  0  0  0
   -2.5481   -2.3902   -1.7617 C   0  0  0  0  0  0  0  0  0  0  0  0
   -2.6591   -0.0768   -0.5900 H   0  0  0  0  0  0  0  0  0  0  0  0
   -1.6794    0.8919   -2.5577 H   0  0  0  0  0  0  0  0  0  0  0  0
   -0.5766    1.3401    2.1506 H   0  0  0  0  0  0  0  0  0  0  0  0
   -2.2618    1.0878    1.7600 H   0  0  0  0  0  0  0  0  0  0  0  0
    0.8110    1.5859   -2.4001 H   0  0  0  0  0  0  0  0  0  0  0  0
    0.4861   -0.0929   -2.7930 H   0  0  0  0  0  0  0  0  0  0  0  0
   -1.2944    3.0736   -1.5664 H   0  0  0  0  0  0  0  0  0  0  0  0
   -0.5220   -1.9651   -1.8015 H   0  0  0  0  0  0  0  0  0  0  0  0
    1.2115   -0.7781    2.4197 H   0  0  0  0  0  0  0  0  0  0  0  0
    2.9401    0.4880   -1.9211 H   0  0  0  0  0  0  0  0  0  0  0  0
    0.0329   -2.6240    0.2772 H   0  0  0  0  0  0  0  0  0  0  0  0
   -1.6976   -3.1540    0.4261 H   0  0  0  0  0  0  0  0  0  0  0  0
   -0.6112   -3.2415    1.7323 H   0  0  0  0  0  0  0  0  0  0  0  0
   -2.9862   -2.1838    2.2169 H   0  0  0  0  0  0  0  0  0  0  0  0
   -3.3460   -1.1795    0.8574 H   0  0  0  0  0  0  0  0  0  0  0  0
   -2.9659   -0.5046    2.4698 H   0  0  0  0  0  0  0  0  0  0  0  0
   -1.5817    4.4665    0.3398 H   0  0  0  0  0  0  0  0  0  0  0  0
   -0.6857    3.8564    1.7371 H   0  0  0  0  0  0  0  0  0  0  0  0
   -2.4499    3.6580    1.6513 H   0  0  0  0  0  0  0  0  0  0  0  0
    3.6262   -0.7823    2.0801 H   0  0  0  0  0  0  0  0  0  0  0  0
   -2.4114   -3.3204   -2.3025 H   0  0  0  0  0  0  0  0  0  0  0  0
   -3.5576   -2.1101   -1.4827 H   0  0  0  0  0  0  0  0  0  0  0  0
  1 19  2  0  0  0  0
  2  4  1  0  0  0  0
  2 15  1  0  0  0  0
  2 16  1  0  0  0  0
  3 10  1  0  0  0  0
  3 19  1  0  0  0  0
  3 30  1  0  0  0  0
  4  5  1  0  0  0  0
  4  7  1  0  0  0  0
  4  8  1  0  0  0  0
  5  6  1  0  0  0  0
  5 13  1  0  0  0  0
  5 21  1  0  0  0  0
  6  9  1  0  0  0  0
  6 11  1  0  0  0  0
  6 22  1  0  0  0  0
  7 12  1  0  0  0  0
  7 23  1  0  0  0  0
  7 24  1  0  0  0  0
  8 10  2  0  0  0  0
  8 14  1  0  0  0  0
  9 10  1  0  0  0  0
  9 25  1  0  0  0  0
  9 26  1  0  0  0  0
 11 12  2  0  0  0  0
 11 27  1  0  0  0  0
 12 17  1  0  0  0  0
 13 20  2  0  0  0  0
 13 28  1  0  0  0  0
 14 18  2  0  0  0  0
 14 29  1  0  0  0  0
 15 31  1  0  0  0  0
 15 32  1  0  0  0  0
 15 33  1  0  0  0  0
 16 34  1  0  0  0  0
 16 35  1  0  0  0  0
 16 36  1  0  0  0  0
 17 37  1  0  0  0  0
 17 38  1  0  0  0  0
 17 39  1  0  0  0  0
 18 19  1  0  0  0  0
 18 40  1  0  0  0  0
 20 41  1  0  0  0  0
 20 42  1  0  0  0  0
M  END
> <PUBCHEM_COMPOUND_CID>
195296

> <PUBCHEM_CONFORMER_RMSD>
0.6

> <PUBCHEM_CONFORMER_DIVERSEORDER>
1

> <PUBCHEM_MMFF94_PARTIAL_CHARGES>
27
1 -0.57
10 -0.03
11 -0.29
12 -0.28
13 -0.29
14 -0.15
15 0.27
16 0.27
17 0.14
18 -0.14
19 0.62
2 -0.81
20 -0.3
27 0.15
28 0.15
29 0.15
3 -0.54
30 0.37
4 0.41
40 0.15
41 0.15
42 0.15
5 0.14
6 0.14
7 0.14
8 -0.14
9 0.14

> <PUBCHEM_EFFECTIVE_ROTOR_COUNT>
2.6

> <PUBCHEM_PHARMACOPHORE_FEATURES>
7
1 1 acceptor
1 2 cation
1 20 hydrophobe
1 3 donor
6 3 8 10 14 18 19 rings
6 4 5 6 7 11 12 rings
6 4 5 6 8 9 10 rings

> <PUBCHEM_HEAVY_ATOM_COUNT>
20

> <PUBCHEM_ATOM_DEF_STEREO_COUNT>
3

> <PUBCHEM_ATOM_UDEF_STEREO_COUNT>
0

> <PUBCHEM_BOND_DEF_STEREO_COUNT>
0

> <PUBCHEM_BOND_UDEF_STEREO_COUNT>
0

> <PUBCHEM_ISOTOPIC_ATOM_COUNT>
0

> <PUBCHEM_COMPONENT_COUNT>
1

> <PUBCHEM_CACTVS_TAUTO_COUNT>
2

> <PUBCHEM_CONFORMER_ID>
0002FAE000000001

> <PUBCHEM_MMFF94_ENERGY>
77.6295

> <PUBCHEM_FEATURE_SELFOVERLAP>
36.873

> <PUBCHEM_SHAPE_FINGERPRINT>
10863032 1 17983861073043310669
10948715 1 17910679760905302049
11578080 2 17535747735254177533
12173636 292 18336550404626248952
12423570 1 12699774744783992857
12788726 201 18337941338142806319
13024252 1 12179847182155506677
13027679 85 17970918992297890569
13299463 15 16371287860613987542
13681431 1 17905879636846442773
141345 1 15891640494552920405
14142880 1 18261106314495533652
14289901 80 18343011212692871714
14617773 55 18042663058044545046
14817 1 17537488042721780961
15309172 13 17534343340729845832
15534591 1 18265896843813394088
15906896 17 18337955571775182145
16945 1 18341045229223833827
21330990 113 17918274247117320871
21524375 3 17978785705831766057
22112679 90 18055934313805249733
23419403 2 17538552610516781155
23557571 272 18126821984774953672
25 1 16126405498480502088
2748010 2 16735231775801387054
394222 165 13338061667272127365
427121 178 17621634638485577689
430814 3 17766550257761568333
5845 1 8068583046282093149
6442390 28 17629497302112647201
6786 2 17626972788664910873
81228 2 18411414016398799601
84936 31 16906065203711390873

> <PUBCHEM_SHAPE_MULTIPOLES>
395.76
4.58
2.93
2.03
6.59
1.65
-0.2
-1.15
0.1
-3.25
0.46
-0.83
-0.41
-0.64

> <PUBCHEM_SHAPE_SELFOVERLAP>
854.121

> <PUBCHEM_SHAPE_VOLUME>
215.2

> <PUBCHEM_COORDINATE_TYPE>
2
5
10

$$$$
