10863674
  -OEChem-09082016133D

 82 86  0     1  0  0  0  0  0999 V2000
    7.2134    1.6557    0.3501 O   0  0  0  0  0  0  0  0  0  0  0  0
    7.4534   -0.5254   -1.4136 O   0  0  0  0  0  0  0  0  0  0  0  0
   -7.3218    1.8713   -0.6382 O   0  0  0  0  0  0  0  0  0  0  0  0
   -4.6164   -2.7564   -0.1535 O   0  0  0  0  0  0  0  0  0  0  0  0
    3.0555    0.6152   -0.1831 C   0  0  2  0  0  0  0  0  0  0  0  0
    1.5754    0.2539    0.3129 C   0  0  2  0  0  0  0  0  0  0  0  0
    4.0584   -0.4689    0.3413 C   0  0  2  0  0  0  0  0  0  0  0  0
    1.1050   -1.2278    0.0625 C   0  0  1  0  0  0  0  0  0  0  0  0
    5.5896   -0.1941    0.0484 C   0  0  2  0  0  0  0  0  0  0  0  0
    3.6086   -1.8916   -0.0245 C   0  0  0  0  0  0  0  0  0  0  0  0
    2.2258   -2.1942    0.5382 C   0  0  0  0  0  0  0  0  0  0  0  0
    3.4661    1.9952    0.4453 C   0  0  0  0  0  0  0  0  0  0  0  0
    0.5342    1.3214   -0.1076 C   0  0  0  0  0  0  0  0  0  0  0  0
   -1.8112    0.2871    0.0910 C   0  0  1  0  0  0  0  0  0  0  0  0
   -3.3171    0.6855    0.3901 C   0  0  2  0  0  0  0  0  0  0  0  0
   -0.1380   -1.5558    0.9620 C   0  0  0  0  0  0  0  0  0  0  0  0
   -0.7883    1.2904    0.6709 C   0  0  0  0  0  0  0  0  0  0  0  0
    5.8747    1.3369   -0.0292 C   0  0  1  0  0  0  0  0  0  0  0  0
   -1.5197   -1.1478    0.4888 C   0  0  0  0  0  0  0  0  0  0  0  0
    4.9324    2.1329    0.8587 C   0  0  0  0  0  0  0  0  0  0  0  0
   -4.2523   -0.3535   -0.3180 C   0  0  2  0  0  0  0  0  0  0  0  0
    3.1034    0.7657   -1.7226 C   0  0  0  0  0  0  0  0  0  0  0  0
    0.7636   -1.5653   -1.4051 C   0  0  0  0  0  0  0  0  0  0  0  0
   -5.8025   -0.0495   -0.2218 C   0  0  0  0  0  0  0  0  0  0  0  0
   -3.5987    2.1014   -0.2109 C   0  0  0  0  0  0  0  0  0  0  0  0
    6.0891   -0.8493   -1.2595 C   0  0  0  0  0  0  0  0  0  0  0  0
    6.4171   -0.8339    1.1986 C   0  0  0  0  0  0  0  0  0  0  0  0
   -6.0535    1.4894   -0.1058 C   0  0  1  0  0  0  0  0  0  0  0  0
   -3.5400    0.7336    1.9238 C   0  0  0  0  0  0  0  0  0  0  0  0
   -2.4774   -2.0887    0.4493 C   0  0  0  0  0  0  0  0  0  0  0  0
   -4.9839    2.2938   -0.8251 C   0  0  0  0  0  0  0  0  0  0  0  0
   -3.8602   -1.7993    0.0079 C   0  0  0  0  0  0  0  0  0  0  0  0
   -6.4872   -0.5982   -1.5041 C   0  0  0  0  0  0  0  0  0  0  0  0
   -6.4974   -0.7294    0.9824 C   0  0  0  0  0  0  0  0  0  0  0  0
    1.6430    0.3397    1.4100 H   0  0  0  0  0  0  0  0  0  0  0  0
    3.9633   -0.4172    1.4389 H   0  0  0  0  0  0  0  0  0  0  0  0
    4.3030   -2.6270    0.3972 H   0  0  0  0  0  0  0  0  0  0  0  0
    3.6203   -2.0490   -1.1068 H   0  0  0  0  0  0  0  0  0  0  0  0
    1.9636   -3.2289    0.2801 H   0  0  0  0  0  0  0  0  0  0  0  0
    2.2906   -2.1650    1.6350 H   0  0  0  0  0  0  0  0  0  0  0  0
    2.8720    2.2025    1.3447 H   0  0  0  0  0  0  0  0  0  0  0  0
    3.2256    2.8046   -0.2569 H   0  0  0  0  0  0  0  0  0  0  0  0
    0.3309    1.2786   -1.1820 H   0  0  0  0  0  0  0  0  0  0  0  0
    0.9563    2.3175    0.0652 H   0  0  0  0  0  0  0  0  0  0  0  0
   -1.7032    0.3238   -1.0030 H   0  0  0  0  0  0  0  0  0  0  0  0
    0.0157   -1.1376    1.9663 H   0  0  0  0  0  0  0  0  0  0  0  0
   -0.1450   -2.6439    1.1271 H   0  0  0  0  0  0  0  0  0  0  0  0
   -0.6021    1.1123    1.7365 H   0  0  0  0  0  0  0  0  0  0  0  0
   -1.1942    2.3060    0.6129 H   0  0  0  0  0  0  0  0  0  0  0  0
    5.7673    1.6961   -1.0574 H   0  0  0  0  0  0  0  0  0  0  0  0
    5.2101    3.1946    0.8606 H   0  0  0  0  0  0  0  0  0  0  0  0
    5.0534    1.8115    1.9016 H   0  0  0  0  0  0  0  0  0  0  0  0
   -3.9990   -0.2762   -1.3893 H   0  0  0  0  0  0  0  0  0  0  0  0
    4.0145    1.2606   -2.0643 H   0  0  0  0  0  0  0  0  0  0  0  0
    3.0653   -0.1896   -2.2442 H   0  0  0  0  0  0  0  0  0  0  0  0
    2.2847    1.3836   -2.1009 H   0  0  0  0  0  0  0  0  0  0  0  0
    1.6441   -1.6409   -2.0428 H   0  0  0  0  0  0  0  0  0  0  0  0
    0.2682   -2.5422   -1.4687 H   0  0  0  0  0  0  0  0  0  0  0  0
    0.0946   -0.8342   -1.8636 H   0  0  0  0  0  0  0  0  0  0  0  0
   -2.8717    2.3378   -0.9987 H   0  0  0  0  0  0  0  0  0  0  0  0
   -3.4541    2.8657    0.5641 H   0  0  0  0  0  0  0  0  0  0  0  0
    5.5439   -0.5077   -2.1429 H   0  0  0  0  0  0  0  0  0  0  0  0
    6.0162   -1.9405   -1.2220 H   0  0  0  0  0  0  0  0  0  0  0  0
    7.4968   -0.7015    1.0708 H   0  0  0  0  0  0  0  0  0  0  0  0
    6.1521   -0.3923    2.1659 H   0  0  0  0  0  0  0  0  0  0  0  0
    6.2390   -1.9119    1.2710 H   0  0  0  0  0  0  0  0  0  0  0  0
   -6.0741    1.7917    0.9463 H   0  0  0  0  0  0  0  0  0  0  0  0
   -4.5199    1.1293    2.1941 H   0  0  0  0  0  0  0  0  0  0  0  0
   -3.4490   -0.2529    2.3882 H   0  0  0  0  0  0  0  0  0  0  0  0
   -2.8136    1.3910    2.4131 H   0  0  0  0  0  0  0  0  0  0  0  0
   -5.2367    3.3617   -0.8233 H   0  0  0  0  0  0  0  0  0  0  0  0
   -4.9622    2.0131   -1.8862 H   0  0  0  0  0  0  0  0  0  0  0  0
   -2.2755   -3.1182    0.7291 H   0  0  0  0  0  0  0  0  0  0  0  0
   -6.1287   -0.0785   -2.3994 H   0  0  0  0  0  0  0  0  0  0  0  0
   -6.2946   -1.6659   -1.6454 H   0  0  0  0  0  0  0  0  0  0  0  0
   -7.5758   -0.4783   -1.4628 H   0  0  0  0  0  0  0  0  0  0  0  0
   -7.5234   -0.3589    1.0964 H   0  0  0  0  0  0  0  0  0  0  0  0
   -6.5763   -1.8137    0.8635 H   0  0  0  0  0  0  0  0  0  0  0  0
   -5.9771   -0.5367    1.9232 H   0  0  0  0  0  0  0  0  0  0  0  0
    7.3351    2.6131    0.2319 H   0  0  0  0  0  0  0  0  0  0  0  0
    7.5160    0.3917   -1.7288 H   0  0  0  0  0  0  0  0  0  0  0  0
   -7.4327    2.8252   -0.4851 H   0  0  0  0  0  0  0  0  0  0  0  0
  1 18  1  0  0  0  0
  1 80  1  0  0  0  0
  2 26  1  0  0  0  0
  2 81  1  0  0  0  0
  3 28  1  0  0  0  0
  3 82  1  0  0  0  0
  4 32  2  0  0  0  0
  5  6  1  0  0  0  0
  5  7  1  0  0  0  0
  5 12  1  0  0  0  0
  5 22  1  0  0  0  0
  6  8  1  0  0  0  0
  6 13  1  0  0  0  0
  6 35  1  0  0  0  0
  7  9  1  0  0  0  0
  7 10  1  0  0  0  0
  7 36  1  0  0  0  0
  8 11  1  0  0  0  0
  8 16  1  0  0  0  0
  8 23  1  0  0  0  0
  9 18  1  0  0  0  0
  9 26  1  0  0  0  0
  9 27  1  0  0  0  0
 10 11  1  0  0  0  0
 10 37  1  0  0  0  0
 10 38  1  0  0  0  0
 11 39  1  0  0  0  0
 11 40  1  0  0  0  0
 12 20  1  0  0  0  0
 12 41  1  0  0  0  0
 12 42  1  0  0  0  0
 13 17  1  0  0  0  0
 13 43  1  0  0  0  0
 13 44  1  0  0  0  0
 14 15  1  0  0  0  0
 14 17  1  0  0  0  0
 14 19  1  0  0  0  0
 14 45  1  0  0  0  0
 15 21  1  0  0  0  0
 15 25  1  0  0  0  0
 15 29  1  0  0  0  0
 16 19  1  0  0  0  0
 16 46  1  0  0  0  0
 16 47  1  0  0  0  0
 17 48  1  0  0  0  0
 17 49  1  0  0  0  0
 18 20  1  0  0  0  0
 18 50  1  0  0  0  0
 19 30  2  0  0  0  0
 20 51  1  0  0  0  0
 20 52  1  0  0  0  0
 21 24  1  0  0  0  0
 21 32  1  0  0  0  0
 21 53  1  0  0  0  0
 22 54  1  0  0  0  0
 22 55  1  0  0  0  0
 22 56  1  0  0  0  0
 23 57  1  0  0  0  0
 23 58  1  0  0  0  0
 23 59  1  0  0  0  0
 24 28  1  0  0  0  0
 24 33  1  0  0  0  0
 24 34  1  0  0  0  0
 25 31  1  0  0  0  0
 25 60  1  0  0  0  0
 25 61  1  0  0  0  0
 26 62  1  0  0  0  0
 26 63  1  0  0  0  0
 27 64  1  0  0  0  0
 27 65  1  0  0  0  0
 27 66  1  0  0  0  0
 28 31  1  0  0  0  0
 28 67  1  0  0  0  0
 29 68  1  0  0  0  0
 29 69  1  0  0  0  0
 29 70  1  0  0  0  0
 30 32  1  0  0  0  0
 30 73  1  0  0  0  0
 31 71  1  0  0  0  0
 31 72  1  0  0  0  0
 33 74  1  0  0  0  0
 33 75  1  0  0  0  0
 33 76  1  0  0  0  0
 34 77  1  0  0  0  0
 34 78  1  0  0  0  0
 34 79  1  0  0  0  0
M  END
> <PUBCHEM_COMPOUND_CID>
10863674

> <PUBCHEM_CONFORMER_RMSD>
0.8

> <PUBCHEM_CONFORMER_DIVERSEORDER>
1
2

> <PUBCHEM_MMFF94_PARTIAL_CHARGES>
17
1 -0.68
14 0.14
16 0.14
18 0.28
19 -0.28
2 -0.68
21 0.06
26 0.28
28 0.28
3 -0.68
30 -0.14
32 0.49
4 -0.57
73 0.15
80 0.4
81 0.4
82 0.4

> <PUBCHEM_EFFECTIVE_ROTOR_COUNT>
3.6

> <PUBCHEM_PHARMACOPHORE_FEATURES>
13
1 1 acceptor
1 1 donor
1 2 acceptor
1 2 donor
1 3 acceptor
1 3 donor
1 4 acceptor
3 24 33 34 hydrophobe
6 14 15 19 21 30 32 rings
6 15 21 24 25 28 31 rings
6 5 6 7 8 10 11 rings
6 5 7 9 12 18 20 rings
7 6 8 13 14 16 17 19 rings

> <PUBCHEM_HEAVY_ATOM_COUNT>
34

> <PUBCHEM_ATOM_DEF_STEREO_COUNT>
10

> <PUBCHEM_ATOM_UDEF_STEREO_COUNT>
0

> <PUBCHEM_BOND_DEF_STEREO_COUNT>
0

> <PUBCHEM_BOND_UDEF_STEREO_COUNT>
0

> <PUBCHEM_ISOTOPIC_ATOM_COUNT>
0

> <PUBCHEM_COMPONENT_COUNT>
1

> <PUBCHEM_CACTVS_TAUTO_COUNT>
8

> <PUBCHEM_CONFORMER_ID>
00A5C43A00000001

> <PUBCHEM_MMFF94_ENERGY>
165.9856

> <PUBCHEM_FEATURE_SELFOVERLAP>
66.015

> <PUBCHEM_SHAPE_FINGERPRINT>
10 15 18187366536312310257
10835480 77 18342171202430665448
11135926 11 18334565816103209519
11315181 36 17632296787586887857
11719270 70 18131066018138517726
12166972 35 18334579070303687172
12236239 1 18412260635988615467
12516196 113 17989204841267351472
12788726 201 17774723040056069713
13402501 40 18410291410705849937
13533116 47 17677043543715062194
13782708 43 15051465872911181924
13811026 1 18411696595145019552
14394314 77 18411985720329838681
14856354 85 14562535089632220587
15064981 194 18337125531239416933
15131766 46 15793442866938597782
15183329 4 18409730651428050418
15196674 1 18410855490620265954
15289351 153 17846777434997840896
1577012 14 18334008359691924011
15788980 27 18040720276748398272
18608769 82 18335424629774929899
18681886 176 18131063848921187050
19611394 137 17823713039273123699
20511986 3 18334846212968749555
21033648 144 18335411353693005111
21033648 29 17821730528664409160
21057603 40 16988848233089132334
21236236 1 18411698816139048771
21267235 1 18411428323003590283
21279426 13 18413110554814765868
21298829 104 18335702711231675581
22393880 68 18412544318721071006
23559900 14 18341888649232391521
23569943 247 17556032286174009390
23576562 1 18042980941902117028
24771293 8 18188487004009228748
2838139 119 18412257350718370861
3004659 81 18335421266372100200
335352 9 18408885131049013236
34797466 226 17917717915539489630
350125 39 18408039606607207714
3545911 37 18409731759318538283
3633792 109 18270116808517594441
4073 2 18113621226602340114
4093350 32 17489592247074995838
4144715 1 18334305235926233323
4325135 7 18412260632432055239
5104073 3 18261396599051049193
5283173 99 18409726244781373617
57724786 102 16081664377607572404
59755656 215 18408604734552270342
59755656 520 16877943841386060883
6086070 43 18060414741989314648

> <PUBCHEM_SHAPE_MULTIPOLES>
676.23
19.78
2.56
1.25
2.99
0.05
0.13
-4.32
2.73
-0.92
-0.08
0.15
0.04
0.74

> <PUBCHEM_SHAPE_SELFOVERLAP>
1431.361

> <PUBCHEM_SHAPE_VOLUME>
372

> <PUBCHEM_COORDINATE_TYPE>
2
5
10

$$$$
