5462443
  -OEChem-09082015183D

 40 43  0     1  0  0  0  0  0999 V2000
    0.8515    1.6334    1.4860 N   0  0  0  0  0  0  0  0  0  0  0  0
   -2.5238   -0.7717   -1.1548 N   0  0  0  0  0  0  0  0  0  0  0  0
    0.6293    0.4367    0.6467 C   0  0  1  0  0  0  0  0  0  0  0  0
    1.4508    0.6006   -0.6616 C   0  0  1  0  0  0  0  0  0  0  0  0
    1.2396   -0.6422   -1.5382 C   0  0  1  0  0  0  0  0  0  0  0  0
    1.2154   -0.7789    1.4232 C   0  0  0  0  0  0  0  0  0  0  0  0
    1.7841   -1.8857   -0.8030 C   0  0  0  0  0  0  0  0  0  0  0  0
    1.2072   -2.0883    0.6070 C   0  0  1  0  0  0  0  0  0  0  0  0
    1.1410    1.9179   -1.3940 C   0  0  0  0  0  0  0  0  0  0  0  0
   -0.2371   -0.7928   -1.9379 C   0  0  0  0  0  0  0  0  0  0  0  0
   -0.8457    0.1371    0.3511 C   0  0  0  0  0  0  0  0  0  0  0  0
    1.3248    3.0962   -0.4451 C   0  0  0  0  0  0  0  0  0  0  0  0
   -1.2352   -0.4584   -0.8587 C   0  0  0  0  0  0  0  0  0  0  0  0
    0.5216    2.8987    0.8355 C   0  0  0  0  0  0  0  0  0  0  0  0
    1.9711   -3.1871    1.3478 C   0  0  0  0  0  0  0  0  0  0  0  0
   -1.8563    0.3584    1.2988 C   0  0  0  0  0  0  0  0  0  0  0  0
   -3.1794    0.0399    1.0149 C   0  0  0  0  0  0  0  0  0  0  0  0
   -3.4590   -0.5138   -0.2176 C   0  0  0  0  0  0  0  0  0  0  0  0
    2.5203    0.6433   -0.4004 H   0  0  0  0  0  0  0  0  0  0  0  0
    1.8251   -0.5408   -2.4618 H   0  0  0  0  0  0  0  0  0  0  0  0
    0.6649   -0.9391    2.3607 H   0  0  0  0  0  0  0  0  0  0  0  0
    2.2534   -0.5603    1.7141 H   0  0  0  0  0  0  0  0  0  0  0  0
    1.6027   -2.7832   -1.4074 H   0  0  0  0  0  0  0  0  0  0  0  0
    2.8757   -1.7850   -0.7301 H   0  0  0  0  0  0  0  0  0  0  0  0
    0.1721   -2.4382    0.5111 H   0  0  0  0  0  0  0  0  0  0  0  0
    0.1172    1.9348   -1.7828 H   0  0  0  0  0  0  0  0  0  0  0  0
    1.8080    2.0324   -2.2565 H   0  0  0  0  0  0  0  0  0  0  0  0
   -0.4238   -1.8125   -2.2967 H   0  0  0  0  0  0  0  0  0  0  0  0
   -0.4428   -0.1252   -2.7846 H   0  0  0  0  0  0  0  0  0  0  0  0
    1.8308    1.6636    1.7720 H   0  0  0  0  0  0  0  0  0  0  0  0
    2.3889    3.2078   -0.2009 H   0  0  0  0  0  0  0  0  0  0  0  0
    1.0133    4.0230   -0.9401 H   0  0  0  0  0  0  0  0  0  0  0  0
    0.7388    3.7184    1.5294 H   0  0  0  0  0  0  0  0  0  0  0  0
   -0.5518    2.9555    0.6223 H   0  0  0  0  0  0  0  0  0  0  0  0
    1.5337   -3.3642    2.3361 H   0  0  0  0  0  0  0  0  0  0  0  0
    1.9330   -4.1289    0.7903 H   0  0  0  0  0  0  0  0  0  0  0  0
    3.0236   -2.9179    1.4865 H   0  0  0  0  0  0  0  0  0  0  0  0
   -1.6194    0.7810    2.2719 H   0  0  0  0  0  0  0  0  0  0  0  0
   -3.9641    0.2176    1.7412 H   0  0  0  0  0  0  0  0  0  0  0  0
   -4.4744   -0.7796   -0.4917 H   0  0  0  0  0  0  0  0  0  0  0  0
  1  3  1  0  0  0  0
  1 14  1  0  0  0  0
  1 30  1  0  0  0  0
  2 13  1  0  0  0  0
  2 18  2  0  0  0  0
  3  4  1  0  0  0  0
  3  6  1  0  0  0  0
  3 11  1  0  0  0  0
  4  5  1  0  0  0  0
  4  9  1  0  0  0  0
  4 19  1  0  0  0  0
  5  7  1  0  0  0  0
  5 10  1  0  0  0  0
  5 20  1  0  0  0  0
  6  8  1  0  0  0  0
  6 21  1  0  0  0  0
  6 22  1  0  0  0  0
  7  8  1  0  0  0  0
  7 23  1  0  0  0  0
  7 24  1  0  0  0  0
  8 15  1  0  0  0  0
  8 25  1  0  0  0  0
  9 12  1  0  0  0  0
  9 26  1  0  0  0  0
  9 27  1  0  0  0  0
 10 13  1  0  0  0  0
 10 28  1  0  0  0  0
 10 29  1  0  0  0  0
 11 13  2  0  0  0  0
 11 16  1  0  0  0  0
 12 14  1  0  0  0  0
 12 31  1  0  0  0  0
 12 32  1  0  0  0  0
 14 33  1  0  0  0  0
 14 34  1  0  0  0  0
 15 35  1  0  0  0  0
 15 36  1  0  0  0  0
 15 37  1  0  0  0  0
 16 17  2  0  0  0  0
 16 38  1  0  0  0  0
 17 18  1  0  0  0  0
 17 39  1  0  0  0  0
 18 40  1  0  0  0  0
M  END
> <PUBCHEM_COMPOUND_CID>
5462443

> <PUBCHEM_CONFORMER_RMSD>
0.6

> <PUBCHEM_CONFORMER_DIVERSEORDER>
1

> <PUBCHEM_MMFF94_PARTIAL_CHARGES>
14
1 -0.9
10 0.14
11 -0.14
13 0.17
14 0.27
16 -0.15
17 -0.15
18 0.16
2 -0.62
3 0.41
30 0.36
38 0.15
39 0.15
40 0.15

> <PUBCHEM_EFFECTIVE_ROTOR_COUNT>
1.6

> <PUBCHEM_PHARMACOPHORE_FEATURES>
7
1 1 cation
1 1 donor
1 2 acceptor
6 1 3 4 9 12 14 rings
6 2 11 13 16 17 18 rings
6 3 4 5 10 11 13 rings
6 3 4 5 6 7 8 rings

> <PUBCHEM_HEAVY_ATOM_COUNT>
18

> <PUBCHEM_ATOM_DEF_STEREO_COUNT>
4

> <PUBCHEM_ATOM_UDEF_STEREO_COUNT>
0

> <PUBCHEM_BOND_DEF_STEREO_COUNT>
0

> <PUBCHEM_BOND_UDEF_STEREO_COUNT>
0

> <PUBCHEM_ISOTOPIC_ATOM_COUNT>
0

> <PUBCHEM_COMPONENT_COUNT>
1

> <PUBCHEM_CACTVS_TAUTO_COUNT>
1

> <PUBCHEM_CONFORMER_ID>
005359AB00000001

> <PUBCHEM_MMFF94_ENERGY>
42.6157

> <PUBCHEM_FEATURE_SELFOVERLAP>
37.127

> <PUBCHEM_SHAPE_FINGERPRINT>
10863032 1 17825393972617175380
10948715 1 17977670040921511181
11578080 2 18045490924979851644
12326174 3 18409450314395958220
12423570 1 13635727132979647374
12716301 132 17049932486248807706
13024252 1 16964614773585184314
13132413 78 18339362955111740752
141345 1 9942653349647778580
14142880 1 13464991505438190402
14181834 199 17842524509965088685
14617773 55 17319876949196706670
14817 1 11706578130160205886
15881359 60 16121286167951267770
15906896 17 11448373002696425942
16945 1 17914363365365717549
19765921 60 17910107246407742353
19837323 101 17190946476008659188
20559304 39 17846503642778085747
20645476 183 17617650403019193381
21524375 3 17981607383465380701
22112679 90 17834141665790068002
23419403 2 17693331656675064089
25 1 18053408739691268661
2748010 2 15823023689121076365
298252 57 17343803739313565044
404807 78 16450645886213994757
430814 3 17980197805258238933
5845 1 17699830852763343412
6442390 28 17614307853732892739
7364860 26 18342177803662835237
81228 2 17542496137618384674
9981440 41 16621512702940852304

> <PUBCHEM_SHAPE_MULTIPOLES>
360.47
3.5
3.17
1.8
3.36
1.96
0.23
-2.4
-0.37
-2.36
-0.66
-0.25
-0.22
-0.79

> <PUBCHEM_SHAPE_SELFOVERLAP>
785.156

> <PUBCHEM_SHAPE_VOLUME>
190.9

> <PUBCHEM_COORDINATE_TYPE>
2
5
10

$$$$
