5460546
  -OEChem-09082015243D

 44 47  0     1  0  0  0  0  0999 V2000
   -4.6839   -0.1338   -0.0308 O   0  0  0  0  0  0  0  0  0  0  0  0
    1.3583   -1.6571   -0.8946 N   0  0  2  0  0  0  0  0  0  0  0  0
   -2.6141    0.4738    0.7890 N   0  0  0  0  0  0  0  0  0  0  0  0
    0.9290   -0.3185   -0.3791 C   0  0  1  0  0  0  0  0  0  0  0  0
    1.5536   -0.0530    1.0365 C   0  0  1  0  0  0  0  0  0  0  0  0
    1.0182    1.2745    1.6090 C   0  0  1  0  0  0  0  0  0  0  0  0
    1.3854    0.8734   -1.2951 C   0  0  0  0  0  0  0  0  0  0  0  0
    1.0359    2.2757   -0.7559 C   0  0  1  0  0  0  0  0  0  0  0  0
    1.4632    2.4392    0.7063 C   0  0  0  0  0  0  0  0  0  0  0  0
    1.3596   -1.2108    2.0349 C   0  0  0  0  0  0  0  0  0  0  0  0
   -0.6146   -0.2507   -0.2669 C   0  0  0  0  0  0  0  0  0  0  0  0
   -0.5130    1.2250    1.7800 C   0  0  0  0  0  0  0  0  0  0  0  0
    1.5084   -2.5758    1.3818 C   0  0  0  0  0  0  0  0  0  0  0  0
   -1.2359    0.4387    0.7165 C   0  0  0  0  0  0  0  0  0  0  0  0
    2.1600   -2.4801    0.0127 C   0  0  0  0  0  0  0  0  0  0  0  0
    1.6776    3.3591   -1.6254 C   0  0  0  0  0  0  0  0  0  0  0  0
    1.9022   -1.7185   -2.2481 C   0  0  0  0  0  0  0  0  0  0  0  0
   -1.4471   -0.9131   -1.2618 C   0  0  0  0  0  0  0  0  0  0  0  0
   -2.7844   -0.8899   -1.2054 C   0  0  0  0  0  0  0  0  0  0  0  0
   -3.4583   -0.1581   -0.1035 C   0  0  0  0  0  0  0  0  0  0  0  0
    2.6415    0.0630    0.9086 H   0  0  0  0  0  0  0  0  0  0  0  0
    1.4620    1.4496    2.5982 H   0  0  0  0  0  0  0  0  0  0  0  0
    0.9410    0.7862   -2.2950 H   0  0  0  0  0  0  0  0  0  0  0  0
    2.4753    0.8244   -1.4259 H   0  0  0  0  0  0  0  0  0  0  0  0
   -0.0486    2.4228   -0.8248 H   0  0  0  0  0  0  0  0  0  0  0  0
    1.0737    3.3857    1.1017 H   0  0  0  0  0  0  0  0  0  0  0  0
    2.5578    2.5162    0.7572 H   0  0  0  0  0  0  0  0  0  0  0  0
    0.3892   -1.1762    2.5404 H   0  0  0  0  0  0  0  0  0  0  0  0
    2.1070   -1.1066    2.8323 H   0  0  0  0  0  0  0  0  0  0  0  0
   -0.9114    2.2469    1.8212 H   0  0  0  0  0  0  0  0  0  0  0  0
   -0.7447    0.7726    2.7532 H   0  0  0  0  0  0  0  0  0  0  0  0
    2.0922   -3.2374    2.0323 H   0  0  0  0  0  0  0  0  0  0  0  0
    0.5186   -3.0405    1.2822 H   0  0  0  0  0  0  0  0  0  0  0  0
    3.1819   -2.0893    0.1011 H   0  0  0  0  0  0  0  0  0  0  0  0
    2.2432   -3.4986   -0.3868 H   0  0  0  0  0  0  0  0  0  0  0  0
    2.7704    3.2860   -1.6136 H   0  0  0  0  0  0  0  0  0  0  0  0
    1.3434    3.2705   -2.6645 H   0  0  0  0  0  0  0  0  0  0  0  0
    1.4011    4.3568   -1.2683 H   0  0  0  0  0  0  0  0  0  0  0  0
    1.2275   -1.2660   -2.9810 H   0  0  0  0  0  0  0  0  0  0  0  0
    2.0176   -2.7613   -2.5674 H   0  0  0  0  0  0  0  0  0  0  0  0
    2.8849   -1.2408   -2.3213 H   0  0  0  0  0  0  0  0  0  0  0  0
   -0.9764   -1.4362   -2.0856 H   0  0  0  0  0  0  0  0  0  0  0  0
   -3.0310    0.9997    1.5520 H   0  0  0  0  0  0  0  0  0  0  0  0
   -3.3978   -1.3835   -1.9495 H   0  0  0  0  0  0  0  0  0  0  0  0
  1 20  2  0  0  0  0
  2  4  1  0  0  0  0
  2 15  1  0  0  0  0
  2 17  1  0  0  0  0
  3 14  1  0  0  0  0
  3 20  1  0  0  0  0
  3 43  1  0  0  0  0
  4  5  1  0  0  0  0
  4  7  1  0  0  0  0
  4 11  1  0  0  0  0
  5  6  1  0  0  0  0
  5 10  1  0  0  0  0
  5 21  1  0  0  0  0
  6  9  1  0  0  0  0
  6 12  1  0  0  0  0
  6 22  1  0  0  0  0
  7  8  1  0  0  0  0
  7 23  1  0  0  0  0
  7 24  1  0  0  0  0
  8  9  1  0  0  0  0
  8 16  1  0  0  0  0
  8 25  1  0  0  0  0
  9 26  1  0  0  0  0
  9 27  1  0  0  0  0
 10 13  1  0  0  0  0
 10 28  1  0  0  0  0
 10 29  1  0  0  0  0
 11 14  2  0  0  0  0
 11 18  1  0  0  0  0
 12 14  1  0  0  0  0
 12 30  1  0  0  0  0
 12 31  1  0  0  0  0
 13 15  1  0  0  0  0
 13 32  1  0  0  0  0
 13 33  1  0  0  0  0
 15 34  1  0  0  0  0
 15 35  1  0  0  0  0
 16 36  1  0  0  0  0
 16 37  1  0  0  0  0
 16 38  1  0  0  0  0
 17 39  1  0  0  0  0
 17 40  1  0  0  0  0
 17 41  1  0  0  0  0
 18 19  2  0  0  0  0
 18 42  1  0  0  0  0
 19 20  1  0  0  0  0
 19 44  1  0  0  0  0
M  END
> <PUBCHEM_COMPOUND_CID>
5460546

> <PUBCHEM_CONFORMER_RMSD>
0.6

> <PUBCHEM_CONFORMER_DIVERSEORDER>
1

> <PUBCHEM_MMFF94_PARTIAL_CHARGES>
15
1 -0.57
11 -0.14
12 0.14
14 -0.03
15 0.27
17 0.27
18 -0.15
19 -0.14
2 -0.81
20 0.62
3 -0.54
4 0.41
42 0.15
43 0.37
44 0.15

> <PUBCHEM_EFFECTIVE_ROTOR_COUNT>
1.6

> <PUBCHEM_PHARMACOPHORE_FEATURES>
7
1 1 acceptor
1 2 cation
1 3 donor
6 2 4 5 10 13 15 rings
6 3 11 14 18 19 20 rings
6 4 5 6 11 12 14 rings
6 4 5 6 7 8 9 rings

> <PUBCHEM_HEAVY_ATOM_COUNT>
20

> <PUBCHEM_ATOM_DEF_STEREO_COUNT>
4

> <PUBCHEM_ATOM_UDEF_STEREO_COUNT>
0

> <PUBCHEM_BOND_DEF_STEREO_COUNT>
0

> <PUBCHEM_BOND_UDEF_STEREO_COUNT>
0

> <PUBCHEM_ISOTOPIC_ATOM_COUNT>
0

> <PUBCHEM_COMPONENT_COUNT>
1

> <PUBCHEM_CACTVS_TAUTO_COUNT>
2

> <PUBCHEM_CONFORMER_ID>
0053524200000001

> <PUBCHEM_MMFF94_ENERGY>
57.2386

> <PUBCHEM_FEATURE_SELFOVERLAP>
37.122

> <PUBCHEM_SHAPE_FINGERPRINT>
10863032 1 17982436402558591176
10948715 1 17681558356768695300
11067466 332 17981596375743834167
11578080 2 18048865313359747788
12326174 3 18261106396120543520
12423570 1 8129495144605442898
12725867 57 18115572760672284728
13681431 1 18336831900803398340
14004458 79 17685494247745344996
141345 1 11202864576254664040
14181834 199 18200291278448875037
14617773 55 12602682091336631488
14817 1 14241464697323348568
15881359 60 16477344325657069418
16945 1 18052501548219394666
17980427 26 10825832736539380614
1813 80 18267587905587226502
19765921 60 18123475139904392105
20559304 39 17846494842353199003
20600515 1 17986383391361818939
20645476 183 17687460578299969132
21524375 3 17830729116452089317
22112679 90 17906193757937927626
2255824 54 18408325501364079735
22889148 1 17256807793874713708
23419403 2 17264635367271277552
2748010 2 17343496700849536335
404807 78 15799305084796934453
4175511 376 18115322162394657094
430814 3 17829031457771942184
5845 1 11028279232186490264
6786 2 17608960885483805612
7364860 26 17918274276659624895
81228 2 17620751682949515289
9981440 41 17051331572357669976

> <PUBCHEM_SHAPE_MULTIPOLES>
395.76
4.28
3.09
2.07
6.85
0.96
0.05
-0.65
0.6
-3.27
0.6
-1.01
-0.15
-0.7

> <PUBCHEM_SHAPE_SELFOVERLAP>
856.179

> <PUBCHEM_SHAPE_VOLUME>
213.4

> <PUBCHEM_COORDINATE_TYPE>
2
5
10

$$$$
