25258213
  -OEChem-09082015333D

 43 46  0     1  0  0  0  0  0999 V2000
   -0.4485   -0.9762   -1.2652 O   0  0  0  0  0  0  0  0  0  0  0  0
    1.7064   -0.8778    2.4083 O   0  0  0  0  0  0  0  0  0  0  0  0
   -1.5709   -2.9259   -1.2142 O   0  0  0  0  0  0  0  0  0  0  0  0
    1.0537    0.9374   -1.4316 N   0  0  1  0  0  0  0  0  0  0  0  0
    0.2216    0.1932    0.8164 C   0  0  2  0  0  0  0  0  0  0  0  0
   -0.0731    0.3217   -0.6954 C   0  0  2  0  0  0  0  0  0  0  0  0
   -1.0583   -0.4064    1.4525 C   0  0  1  0  0  0  0  0  0  0  0  0
   -1.3256    1.2252   -0.9656 C   0  0  0  0  0  0  0  0  0  0  0  0
    0.5781    1.5850    1.4049 C   0  0  0  0  0  0  0  0  0  0  0  0
   -2.3038    0.4811    1.2535 C   0  0  0  0  0  0  0  0  0  0  0  0
   -2.5966    0.7882   -0.2185 C   0  0  1  0  0  0  0  0  0  0  0  0
    1.4043   -0.7352    1.2169 C   0  0  0  0  0  0  0  0  0  0  0  0
   -1.3097   -1.8054    0.8766 C   0  0  0  0  0  0  0  0  0  0  0  0
    1.7526    2.2123    0.6570 C   0  0  0  0  0  0  0  0  0  0  0  0
    1.5567    2.1935   -0.8598 C   0  0  0  0  0  0  0  0  0  0  0  0
    2.1076    0.0233   -1.8655 C   0  0  0  0  0  0  0  0  0  0  0  0
    2.1795   -1.5115    0.1733 C   0  0  0  0  0  0  0  0  0  0  0  0
   -1.1457   -1.9389   -0.6174 C   0  0  0  0  0  0  0  0  0  0  0  0
    2.9620   -0.6347   -0.7856 C   0  0  0  0  0  0  0  0  0  0  0  0
   -3.6903    1.8509   -0.3408 C   0  0  0  0  0  0  0  0  0  0  0  0
   -0.9183   -0.5156    2.5367 H   0  0  0  0  0  0  0  0  0  0  0  0
   -1.5499    1.2145   -2.0420 H   0  0  0  0  0  0  0  0  0  0  0  0
   -1.1267    2.2711   -0.7078 H   0  0  0  0  0  0  0  0  0  0  0  0
    0.8283    1.5120    2.4707 H   0  0  0  0  0  0  0  0  0  0  0  0
   -0.2658    2.2793    1.3492 H   0  0  0  0  0  0  0  0  0  0  0  0
   -3.1787   -0.0100    1.6993 H   0  0  0  0  0  0  0  0  0  0  0  0
   -2.1815    1.4144    1.8156 H   0  0  0  0  0  0  0  0  0  0  0  0
   -2.9909   -0.1166   -0.6958 H   0  0  0  0  0  0  0  0  0  0  0  0
   -2.3224   -2.1367    1.1354 H   0  0  0  0  0  0  0  0  0  0  0  0
   -0.6139   -2.5200    1.3325 H   0  0  0  0  0  0  0  0  0  0  0  0
    1.8793    3.2493    0.9911 H   0  0  0  0  0  0  0  0  0  0  0  0
    2.6793    1.6987    0.9292 H   0  0  0  0  0  0  0  0  0  0  0  0
    0.8543    2.9936   -1.1232 H   0  0  0  0  0  0  0  0  0  0  0  0
    2.4932    2.4949   -1.3465 H   0  0  0  0  0  0  0  0  0  0  0  0
    2.7787    0.5638   -2.5464 H   0  0  0  0  0  0  0  0  0  0  0  0
    1.6704   -0.7597   -2.4984 H   0  0  0  0  0  0  0  0  0  0  0  0
    2.8997   -2.1347    0.7203 H   0  0  0  0  0  0  0  0  0  0  0  0
    1.5273   -2.2153   -0.3470 H   0  0  0  0  0  0  0  0  0  0  0  0
    3.5426    0.1154   -0.2405 H   0  0  0  0  0  0  0  0  0  0  0  0
    3.7014   -1.2672   -1.2940 H   0  0  0  0  0  0  0  0  0  0  0  0
   -3.3818    2.7967    0.1175 H   0  0  0  0  0  0  0  0  0  0  0  0
   -4.6095    1.5194    0.1537 H   0  0  0  0  0  0  0  0  0  0  0  0
   -3.9258    2.0451   -1.3926 H   0  0  0  0  0  0  0  0  0  0  0  0
  1  6  1  0  0  0  0
  1 18  1  0  0  0  0
  2 12  2  0  0  0  0
  3 18  2  0  0  0  0
  4  6  1  0  0  0  0
  4 15  1  0  0  0  0
  4 16  1  0  0  0  0
  5  6  1  0  0  0  0
  5  7  1  0  0  0  0
  5  9  1  0  0  0  0
  5 12  1  0  0  0  0
  6  8  1  0  0  0  0
  7 10  1  0  0  0  0
  7 13  1  0  0  0  0
  7 21  1  0  0  0  0
  8 11  1  0  0  0  0
  8 22  1  0  0  0  0
  8 23  1  0  0  0  0
  9 14  1  0  0  0  0
  9 24  1  0  0  0  0
  9 25  1  0  0  0  0
 10 11  1  0  0  0  0
 10 26  1  0  0  0  0
 10 27  1  0  0  0  0
 11 20  1  0  0  0  0
 11 28  1  0  0  0  0
 12 17  1  0  0  0  0
 13 18  1  0  0  0  0
 13 29  1  0  0  0  0
 13 30  1  0  0  0  0
 14 15  1  0  0  0  0
 14 31  1  0  0  0  0
 14 32  1  0  0  0  0
 15 33  1  0  0  0  0
 15 34  1  0  0  0  0
 16 19  1  0  0  0  0
 16 35  1  0  0  0  0
 16 36  1  0  0  0  0
 17 19  1  0  0  0  0
 17 37  1  0  0  0  0
 17 38  1  0  0  0  0
 19 39  1  0  0  0  0
 19 40  1  0  0  0  0
 20 41  1  0  0  0  0
 20 42  1  0  0  0  0
 20 43  1  0  0  0  0
M  END
> <PUBCHEM_COMPOUND_CID>
25258213

> <PUBCHEM_CONFORMER_RMSD>
0.6

> <PUBCHEM_CONFORMER_DIVERSEORDER>
1

> <PUBCHEM_MMFF94_PARTIAL_CHARGES>
12
1 -0.43
12 0.45
13 0.06
15 0.27
16 0.27
17 0.06
18 0.66
2 -0.57
3 -0.57
4 -0.81
5 0.06
6 0.55

> <PUBCHEM_EFFECTIVE_ROTOR_COUNT>
2.2

> <PUBCHEM_PHARMACOPHORE_FEATURES>
7
1 2 acceptor
1 3 acceptor
1 4 cation
6 1 5 6 7 13 18 rings
6 4 5 6 9 14 15 rings
6 5 6 7 8 10 11 rings
7 4 5 6 12 16 17 19 rings

> <PUBCHEM_HEAVY_ATOM_COUNT>
20

> <PUBCHEM_ATOM_DEF_STEREO_COUNT>
4

> <PUBCHEM_ATOM_UDEF_STEREO_COUNT>
0

> <PUBCHEM_BOND_DEF_STEREO_COUNT>
0

> <PUBCHEM_BOND_UDEF_STEREO_COUNT>
0

> <PUBCHEM_ISOTOPIC_ATOM_COUNT>
0

> <PUBCHEM_COMPONENT_COUNT>
1

> <PUBCHEM_CACTVS_TAUTO_COUNT>
4

> <PUBCHEM_CONFORMER_ID>
018168E500000001

> <PUBCHEM_MMFF94_ENERGY>
60.6451

> <PUBCHEM_FEATURE_SELFOVERLAP>
38.24

> <PUBCHEM_SHAPE_FINGERPRINT>
10863032 1 17096675147811823978
10948715 1 17241914062599255668
11578080 2 17915749862397674393
12423570 1 10082309687661422328
12491281 212 16444783474058618917
12654903 92 18341900645123092910
12808571 1 16226629462296503380
13134695 92 17681528378224094909
13172582 1 18192697973711331611
13380536 243 18340206267555386533
144361 1 18261123932308437347
15852999 172 17489007314962112111
15881359 60 17463663425928999894
16945 1 17971224501906275884
18981168 100 17488184979043535064
20511035 2 18113617850747320009
22344851 12 14019108257514457410
22344851 341 18264214771490475504
23419403 2 16701739474809028510
23559900 14 17988368079598079694
3060560 45 17982425150029196869
34934 24 18114188493092410308
589210 1 18268424809776006223
68419 9 18189605210816779775
81228 2 17977108178132535137

> <PUBCHEM_SHAPE_MULTIPOLES>
389
3.9
2.53
1.85
1.46
0.38
0.36
-0.96
-0.58
0.34
-0.39
-0.58
0.23
-0.17

> <PUBCHEM_SHAPE_SELFOVERLAP>
841.27

> <PUBCHEM_SHAPE_VOLUME>
205.1

> <PUBCHEM_COORDINATE_TYPE>
2
5
10

$$$$
