102306584
  -OEChem-09082015483D

 43 46  0     1  0  0  0  0  0999 V2000
    1.8694   -0.1795    1.6356 O   0  0  0  0  0  0  0  0  0  0  0  0
   -2.9946    0.4316   -1.5855 O   0  0  0  0  0  0  0  0  0  0  0  0
   -2.9505    2.3332    0.3134 O   0  0  0  0  0  0  0  0  0  0  0  0
    0.3312   -2.2009    0.0042 N   0  0  2  0  0  0  0  0  0  0  0  0
    0.4336   -0.7286   -0.2269 C   0  0  1  0  0  0  0  0  0  0  0  0
    0.5836    0.1003    1.0467 C   0  0  2  0  0  0  0  0  0  0  0  0
    0.5788    1.5312    0.4446 C   0  0  2  0  0  0  0  0  0  0  0  0
    1.7772   -0.4597   -1.0670 C   0  0  0  0  0  0  0  0  0  0  0  0
   -0.8927   -0.4286   -0.9760 C   0  0  0  0  0  0  0  0  0  0  0  0
    2.3949    1.0070   -1.0950 C   0  0  1  0  0  0  0  0  0  0  0  0
   -0.4301   -0.2836    2.1360 C   0  0  0  0  0  0  0  0  0  0  0  0
    1.9756    1.9766    0.0717 C   0  0  0  0  0  0  0  0  0  0  0  0
   -0.2003   -2.7206   -1.2753 C   0  0  0  0  0  0  0  0  0  0  0  0
   -0.5900   -2.5685    1.1010 C   0  0  0  0  0  0  0  0  0  0  0  0
   -1.1441   -1.6512   -1.8375 C   0  0  0  0  0  0  0  0  0  0  0  0
   -0.3496   -1.7904    2.3927 C   0  0  0  0  0  0  0  0  0  0  0  0
   -0.6078    2.3566    0.8334 C   0  0  0  0  0  0  0  0  0  0  0  0
   -1.8359    0.5423   -0.8133 C   0  0  0  0  0  0  0  0  0  0  0  0
   -1.8635    1.7718    0.1328 C   0  0  0  0  0  0  0  0  0  0  0  0
    3.9147    0.9610   -1.2358 C   0  0  0  0  0  0  0  0  0  0  0  0
    0.2778    1.4979   -0.6083 H   0  0  0  0  0  0  0  0  0  0  0  0
    2.5542   -1.1276   -0.6660 H   0  0  0  0  0  0  0  0  0  0  0  0
    1.6370   -0.7732   -2.1099 H   0  0  0  0  0  0  0  0  0  0  0  0
    2.0096    1.4641   -2.0191 H   0  0  0  0  0  0  0  0  0  0  0  0
   -1.4625   -0.0396    1.8768 H   0  0  0  0  0  0  0  0  0  0  0  0
   -0.2022    0.2413    3.0717 H   0  0  0  0  0  0  0  0  0  0  0  0
    1.9795    3.0095   -0.2974 H   0  0  0  0  0  0  0  0  0  0  0  0
    2.6724    1.9446    0.9149 H   0  0  0  0  0  0  0  0  0  0  0  0
   -0.6984   -3.6917   -1.1675 H   0  0  0  0  0  0  0  0  0  0  0  0
    0.6311   -2.8872   -1.9713 H   0  0  0  0  0  0  0  0  0  0  0  0
   -0.4677   -3.6378    1.3125 H   0  0  0  0  0  0  0  0  0  0  0  0
   -1.6401   -2.4281    0.8112 H   0  0  0  0  0  0  0  0  0  0  0  0
   -2.1823   -1.9911   -1.7582 H   0  0  0  0  0  0  0  0  0  0  0  0
   -0.9077   -1.4421   -2.8858 H   0  0  0  0  0  0  0  0  0  0  0  0
    0.6255   -2.0590    2.8163 H   0  0  0  0  0  0  0  0  0  0  0  0
   -1.1029   -2.0738    3.1370 H   0  0  0  0  0  0  0  0  0  0  0  0
   -0.4887    3.3868    0.4787 H   0  0  0  0  0  0  0  0  0  0  0  0
   -0.7649    2.3824    1.9151 H   0  0  0  0  0  0  0  0  0  0  0  0
    1.9678    0.3933    2.4156 H   0  0  0  0  0  0  0  0  0  0  0  0
    4.3233    1.9687   -1.3655 H   0  0  0  0  0  0  0  0  0  0  0  0
    4.2063    0.3649   -2.1067 H   0  0  0  0  0  0  0  0  0  0  0  0
    4.3788    0.5178   -0.3486 H   0  0  0  0  0  0  0  0  0  0  0  0
   -3.5725    1.1806   -1.3598 H   0  0  0  0  0  0  0  0  0  0  0  0
  1  6  1  0  0  0  0
  1 39  1  0  0  0  0
  2 18  1  0  0  0  0
  2 43  1  0  0  0  0
  3 19  2  0  0  0  0
  4  5  1  0  0  0  0
  4 13  1  0  0  0  0
  4 14  1  0  0  0  0
  5  6  1  0  0  0  0
  5  8  1  0  0  0  0
  5  9  1  0  0  0  0
  6  7  1  0  0  0  0
  6 11  1  0  0  0  0
  7 12  1  0  0  0  0
  7 17  1  0  0  0  0
  7 21  1  0  0  0  0
  8 10  1  0  0  0  0
  8 22  1  0  0  0  0
  8 23  1  0  0  0  0
  9 15  1  0  0  0  0
  9 18  2  0  0  0  0
 10 12  1  0  0  0  0
 10 20  1  0  0  0  0
 10 24  1  0  0  0  0
 11 16  1  0  0  0  0
 11 25  1  0  0  0  0
 11 26  1  0  0  0  0
 12 27  1  0  0  0  0
 12 28  1  0  0  0  0
 13 15  1  0  0  0  0
 13 29  1  0  0  0  0
 13 30  1  0  0  0  0
 14 16  1  0  0  0  0
 14 31  1  0  0  0  0
 14 32  1  0  0  0  0
 15 33  1  0  0  0  0
 15 34  1  0  0  0  0
 16 35  1  0  0  0  0
 16 36  1  0  0  0  0
 17 19  1  0  0  0  0
 17 37  1  0  0  0  0
 17 38  1  0  0  0  0
 18 19  1  0  0  0  0
 20 40  1  0  0  0  0
 20 41  1  0  0  0  0
 20 42  1  0  0  0  0
M  END
> <PUBCHEM_COMPOUND_CID>
102306584

> <PUBCHEM_CONFORMER_RMSD>
0.6

> <PUBCHEM_CONFORMER_DIVERSEORDER>
1

> <PUBCHEM_MMFF94_PARTIAL_CHARGES>
15
1 -0.68
13 0.27
14 0.27
15 0.14
17 0.06
18 0.09
19 0.49
2 -0.53
3 -0.57
39 0.4
4 -0.81
43 0.45
5 0.41
6 0.28
9 -0.28

> <PUBCHEM_EFFECTIVE_ROTOR_COUNT>
1.8

> <PUBCHEM_PHARMACOPHORE_FEATURES>
9
1 1 acceptor
1 1 donor
1 2 donor
1 3 acceptor
1 4 cation
5 4 5 9 13 15 rings
6 4 5 6 11 14 16 rings
6 5 6 7 8 10 12 rings
7 5 6 7 9 17 18 19 rings

> <PUBCHEM_HEAVY_ATOM_COUNT>
20

> <PUBCHEM_ATOM_DEF_STEREO_COUNT>
4

> <PUBCHEM_ATOM_UDEF_STEREO_COUNT>
0

> <PUBCHEM_BOND_DEF_STEREO_COUNT>
0

> <PUBCHEM_BOND_UDEF_STEREO_COUNT>
0

> <PUBCHEM_ISOTOPIC_ATOM_COUNT>
0

> <PUBCHEM_COMPONENT_COUNT>
1

> <PUBCHEM_CACTVS_TAUTO_COUNT>
6

> <PUBCHEM_CONFORMER_ID>
0619131800000001

> <PUBCHEM_MMFF94_ENERGY>
117.3882

> <PUBCHEM_FEATURE_SELFOVERLAP>
46.333

> <PUBCHEM_SHAPE_FINGERPRINT>
10863032 1 17749117668311491234
10948715 1 18188507773494885348
11315181 36 16558203618731033396
11578080 2 16843048782183150880
12326174 3 17608086477234025441
12423570 1 15247615873614212952
13024252 1 17098067301642555590
13299463 15 17700699733485178958
141345 1 17822015289254197411
144361 1 17558272295604997550
14761567 1 17464788540004286650
14817 1 17391117867729246403
15881359 60 17772222844581287474
16945 1 18130774711427369237
18721546 61 18340207504490214944
19765921 60 18189905222751416905
20473742 2 16226872355676913808
20645476 183 17894906377630943428
21330990 113 17475293158132045390
21524375 3 18334294236456439724
22802520 49 17700407267449936780
23419403 2 17401263989337335203
23559900 14 17846501418686939100
2748010 2 17766043525093559340
298252 57 18271248222539803612
4175511 376 17611770914949894187
430814 3 18187642479365862285
4340502 62 17752231425845735689
576247 118 16888369672121628978
5845 1 17473553923815357284
81228 2 17976816807034683953

> <PUBCHEM_SHAPE_MULTIPOLES>
389
3.51
2.98
2.06
3.59
0.58
0.67
0.95
-1.67
-1.98
0.12
-0.75
-0.91
0.39

> <PUBCHEM_SHAPE_SELFOVERLAP>
841.767

> <PUBCHEM_SHAPE_VOLUME>
210.5

> <PUBCHEM_COORDINATE_TYPE>
2
5
10

$$$$
