101528287
  -OEChem-09082016163D

 85 89  0     1  0  0  0  0  0999 V2000
   -2.2711    2.9149   -0.9491 O   0  0  0  0  0  0  0  0  0  0  0  0
    5.1786   -3.4104   -0.1740 O   0  0  0  0  0  0  0  0  0  0  0  0
   -6.3656   -2.1302    0.3937 O   0  0  0  0  0  0  0  0  0  0  0  0
    1.3339    0.8519    0.7314 C   0  0  1  0  0  0  0  0  0  0  0  0
    1.4185    2.2164   -0.0380 C   0  0  2  0  0  0  0  0  0  0  0  0
    2.7112    0.0315    0.8321 C   0  0  2  0  0  0  0  0  0  0  0  0
   -1.7764    1.3365    0.8155 C   0  0  2  0  0  0  0  0  0  0  0  0
   -2.5308   -0.0639    0.6558 C   0  0  2  0  0  0  0  0  0  0  0  0
   -1.2486    1.9681   -0.5193 C   0  0  2  0  0  0  0  0  0  0  0  0
    3.2734   -0.1262   -0.6331 C   0  0  1  0  0  0  0  0  0  0  0  0
    0.0179    2.8453   -0.3638 C   0  0  0  0  0  0  0  0  0  0  0  0
   -3.3690    0.0122   -0.6719 C   0  0  2  0  0  0  0  0  0  0  0  0
    0.5613    0.9316    2.0651 C   0  0  0  0  0  0  0  0  0  0  0  0
   -0.8507    1.5200    2.0436 C   0  0  0  0  0  0  0  0  0  0  0  0
    2.1609    2.0181   -1.3866 C   0  0  0  0  0  0  0  0  0  0  0  0
    3.4763    1.2483   -1.2961 C   0  0  0  0  0  0  0  0  0  0  0  0
    4.4766   -1.1279   -0.8195 C   0  0  0  0  0  0  0  0  0  0  0  0
   -1.1770    0.9830   -1.6890 C   0  0  0  0  0  0  0  0  0  0  0  0
   -4.5344   -1.0399   -0.8651 C   0  0  0  0  0  0  0  0  0  0  0  0
    2.4169   -1.4004    1.3784 C   0  0  0  0  0  0  0  0  0  0  0  0
   -2.4667    0.1830   -1.9164 C   0  0  0  0  0  0  0  0  0  0  0  0
   -3.4973   -0.2325    1.8670 C   0  0  0  0  0  0  0  0  0  0  0  0
    2.1758    3.3120    0.7574 C   0  0  0  0  0  0  0  0  0  0  0  0
    4.0828   -2.4958   -0.1879 C   0  0  2  0  0  0  0  0  0  0  0  0
    3.7071    0.7056    1.8071 C   0  0  0  0  0  0  0  0  0  0  0  0
    3.5776   -2.3816    1.2443 C   0  0  0  0  0  0  0  0  0  0  0  0
   -5.3850   -1.0945    0.4380 C   0  0  2  0  0  0  0  0  0  0  0  0
   -1.5605   -1.2606    0.6707 C   0  0  0  0  0  0  0  0  0  0  0  0
   -4.5438   -1.3239    1.6887 C   0  0  0  0  0  0  0  0  0  0  0  0
    4.7221   -1.3682   -2.3363 C   0  0  0  0  0  0  0  0  0  0  0  0
    5.8133   -0.6103   -0.2510 C   0  0  0  0  0  0  0  0  0  0  0  0
   -5.4544   -0.5543   -2.0208 C   0  0  0  0  0  0  0  0  0  0  0  0
   -4.0729   -2.4579   -1.2707 C   0  0  0  0  0  0  0  0  0  0  0  0
    0.7240    0.2024    0.1048 H   0  0  0  0  0  0  0  0  0  0  0  0
   -2.6061    2.0078    1.0963 H   0  0  0  0  0  0  0  0  0  0  0  0
    2.4525   -0.5958   -1.2017 H   0  0  0  0  0  0  0  0  0  0  0  0
   -0.2156    3.6106    0.3911 H   0  0  0  0  0  0  0  0  0  0  0  0
    0.1171    3.4529   -1.2773 H   0  0  0  0  0  0  0  0  0  0  0  0
   -3.9119    0.9682   -0.5865 H   0  0  0  0  0  0  0  0  0  0  0  0
    1.1341    1.5023    2.8037 H   0  0  0  0  0  0  0  0  0  0  0  0
    0.4782   -0.0665    2.5014 H   0  0  0  0  0  0  0  0  0  0  0  0
   -1.3697    1.1611    2.9410 H   0  0  0  0  0  0  0  0  0  0  0  0
   -0.7546    2.5988    2.2281 H   0  0  0  0  0  0  0  0  0  0  0  0
    2.3615    2.9920   -1.8530 H   0  0  0  0  0  0  0  0  0  0  0  0
    1.5137    1.4839   -2.0913 H   0  0  0  0  0  0  0  0  0  0  0  0
    3.8436    1.1331   -2.3205 H   0  0  0  0  0  0  0  0  0  0  0  0
    4.2309    1.8436   -0.7756 H   0  0  0  0  0  0  0  0  0  0  0  0
   -0.3537    0.2770   -1.5772 H   0  0  0  0  0  0  0  0  0  0  0  0
   -0.9619    1.5277   -2.6187 H   0  0  0  0  0  0  0  0  0  0  0  0
    1.5538   -1.8238    0.8488 H   0  0  0  0  0  0  0  0  0  0  0  0
    2.1441   -1.3585    2.4392 H   0  0  0  0  0  0  0  0  0  0  0  0
   -3.0445    0.6887   -2.7003 H   0  0  0  0  0  0  0  0  0  0  0  0
   -2.1773   -0.7846   -2.3362 H   0  0  0  0  0  0  0  0  0  0  0  0
   -4.0320    0.7087    2.0507 H   0  0  0  0  0  0  0  0  0  0  0  0
   -2.9303   -0.4433    2.7818 H   0  0  0  0  0  0  0  0  0  0  0  0
    2.1088    4.2786    0.2416 H   0  0  0  0  0  0  0  0  0  0  0  0
    3.2400    3.1113    0.8684 H   0  0  0  0  0  0  0  0  0  0  0  0
    1.7525    3.4544    1.7564 H   0  0  0  0  0  0  0  0  0  0  0  0
    3.2935   -2.9537   -0.7988 H   0  0  0  0  0  0  0  0  0  0  0  0
    4.3645    1.4252    1.3180 H   0  0  0  0  0  0  0  0  0  0  0  0
    4.3654   -0.0136    2.3001 H   0  0  0  0  0  0  0  0  0  0  0  0
    3.2020    1.2254    2.6241 H   0  0  0  0  0  0  0  0  0  0  0  0
    4.3998   -2.1223    1.9201 H   0  0  0  0  0  0  0  0  0  0  0  0
    3.2448   -3.3702    1.5878 H   0  0  0  0  0  0  0  0  0  0  0  0
   -5.9288   -0.1470    0.5487 H   0  0  0  0  0  0  0  0  0  0  0  0
   -0.8733   -1.2725   -0.1747 H   0  0  0  0  0  0  0  0  0  0  0  0
   -2.0781   -2.2186    0.6573 H   0  0  0  0  0  0  0  0  0  0  0  0
   -0.9705   -1.2826    1.5884 H   0  0  0  0  0  0  0  0  0  0  0  0
   -4.0837   -2.3179    1.6740 H   0  0  0  0  0  0  0  0  0  0  0  0
   -5.1996   -1.3339    2.5692 H   0  0  0  0  0  0  0  0  0  0  0  0
   -2.3361    3.6164   -0.2787 H   0  0  0  0  0  0  0  0  0  0  0  0
    6.6460   -1.2565   -0.5541 H   0  0  0  0  0  0  0  0  0  0  0  0
    5.1424   -0.4866   -2.8304 H   0  0  0  0  0  0  0  0  0  0  0  0
    3.7930   -1.6369   -2.8512 H   0  0  0  0  0  0  0  0  0  0  0  0
    5.4338   -2.1863   -2.4980 H   0  0  0  0  0  0  0  0  0  0  0  0
    5.8298   -0.5840    0.8387 H   0  0  0  0  0  0  0  0  0  0  0  0
    6.0460    0.3943   -0.6179 H   0  0  0  0  0  0  0  0  0  0  0  0
   -4.9333   -3.0895   -1.5250 H   0  0  0  0  0  0  0  0  0  0  0  0
   -3.5432   -2.9809   -0.4758 H   0  0  0  0  0  0  0  0  0  0  0  0
   -6.3410   -1.1916   -2.1179 H   0  0  0  0  0  0  0  0  0  0  0  0
   -4.9378   -0.5738   -2.9861 H   0  0  0  0  0  0  0  0  0  0  0  0
   -5.8060    0.4686   -1.8461 H   0  0  0  0  0  0  0  0  0  0  0  0
   -3.4329   -2.4502   -2.1567 H   0  0  0  0  0  0  0  0  0  0  0  0
    4.8505   -4.2607    0.1652 H   0  0  0  0  0  0  0  0  0  0  0  0
   -6.9029   -2.0643    1.2015 H   0  0  0  0  0  0  0  0  0  0  0  0
  1  9  1  0  0  0  0
  1 71  1  0  0  0  0
  2 24  1  0  0  0  0
  2 84  1  0  0  0  0
  3 27  1  0  0  0  0
  3 85  1  0  0  0  0
  4  5  1  0  0  0  0
  4  6  1  0  0  0  0
  4 13  1  0  0  0  0
  4 34  1  0  0  0  0
  5 11  1  0  0  0  0
  5 15  1  0  0  0  0
  5 23  1  0  0  0  0
  6 10  1  0  0  0  0
  6 20  1  0  0  0  0
  6 25  1  0  0  0  0
  7  8  1  0  0  0  0
  7  9  1  0  0  0  0
  7 14  1  0  0  0  0
  7 35  1  0  0  0  0
  8 12  1  0  0  0  0
  8 22  1  0  0  0  0
  8 28  1  0  0  0  0
  9 11  1  0  0  0  0
  9 18  1  0  0  0  0
 10 16  1  0  0  0  0
 10 17  1  0  0  0  0
 10 36  1  0  0  0  0
 11 37  1  0  0  0  0
 11 38  1  0  0  0  0
 12 19  1  0  0  0  0
 12 21  1  0  0  0  0
 12 39  1  0  0  0  0
 13 14  1  0  0  0  0
 13 40  1  0  0  0  0
 13 41  1  0  0  0  0
 14 42  1  0  0  0  0
 14 43  1  0  0  0  0
 15 16  1  0  0  0  0
 15 44  1  0  0  0  0
 15 45  1  0  0  0  0
 16 46  1  0  0  0  0
 16 47  1  0  0  0  0
 17 24  1  0  0  0  0
 17 30  1  0  0  0  0
 17 31  1  0  0  0  0
 18 21  1  0  0  0  0
 18 48  1  0  0  0  0
 18 49  1  0  0  0  0
 19 27  1  0  0  0  0
 19 32  1  0  0  0  0
 19 33  1  0  0  0  0
 20 26  1  0  0  0  0
 20 50  1  0  0  0  0
 20 51  1  0  0  0  0
 21 52  1  0  0  0  0
 21 53  1  0  0  0  0
 22 29  1  0  0  0  0
 22 54  1  0  0  0  0
 22 55  1  0  0  0  0
 23 56  1  0  0  0  0
 23 57  1  0  0  0  0
 23 58  1  0  0  0  0
 24 26  1  0  0  0  0
 24 59  1  0  0  0  0
 25 60  1  0  0  0  0
 25 61  1  0  0  0  0
 25 62  1  0  0  0  0
 26 63  1  0  0  0  0
 26 64  1  0  0  0  0
 27 29  1  0  0  0  0
 27 65  1  0  0  0  0
 28 66  1  0  0  0  0
 28 67  1  0  0  0  0
 28 68  1  0  0  0  0
 29 69  1  0  0  0  0
 29 70  1  0  0  0  0
 30 73  1  0  0  0  0
 30 74  1  0  0  0  0
 30 75  1  0  0  0  0
 31 72  1  0  0  0  0
 31 76  1  0  0  0  0
 31 77  1  0  0  0  0
 32 80  1  0  0  0  0
 32 81  1  0  0  0  0
 32 82  1  0  0  0  0
 33 78  1  0  0  0  0
 33 79  1  0  0  0  0
 33 83  1  0  0  0  0
M  END
> <PUBCHEM_COMPOUND_CID>
101528287

> <PUBCHEM_CONFORMER_RMSD>
0.8

> <PUBCHEM_CONFORMER_DIVERSEORDER>
2
1

> <PUBCHEM_MMFF94_PARTIAL_CHARGES>
9
1 -0.68
2 -0.68
24 0.28
27 0.28
3 -0.68
71 0.4
84 0.4
85 0.4
9 0.28

> <PUBCHEM_EFFECTIVE_ROTOR_COUNT>
3

> <PUBCHEM_PHARMACOPHORE_FEATURES>
13
1 1 acceptor
1 1 donor
1 2 acceptor
1 2 donor
1 3 acceptor
1 3 donor
3 17 30 31 hydrophobe
3 19 32 33 hydrophobe
6 4 5 6 10 15 16 rings
6 6 10 17 20 24 26 rings
6 7 8 9 12 18 21 rings
6 8 12 19 22 27 29 rings
7 4 5 7 9 11 13 14 rings

> <PUBCHEM_HEAVY_ATOM_COUNT>
33

> <PUBCHEM_ATOM_DEF_STEREO_COUNT>
10

> <PUBCHEM_ATOM_UDEF_STEREO_COUNT>
0

> <PUBCHEM_BOND_DEF_STEREO_COUNT>
0

> <PUBCHEM_BOND_UDEF_STEREO_COUNT>
0

> <PUBCHEM_ISOTOPIC_ATOM_COUNT>
0

> <PUBCHEM_COMPONENT_COUNT>
1

> <PUBCHEM_CACTVS_TAUTO_COUNT>
1

> <PUBCHEM_CONFORMER_ID>
060D32DF00000002

> <PUBCHEM_MMFF94_ENERGY>
179.6181

> <PUBCHEM_FEATURE_SELFOVERLAP>
66.021

> <PUBCHEM_SHAPE_FINGERPRINT>
10319926 262 14620803703739850031
10498660 4 14418140603642509812
10622 236 17680981895407947866
10928967 22 18342455902743381038
11135609 201 8213554723703542127
11578080 2 18129645440188478096
11961588 58 13045947948889375133
11991303 11 17973725779892833685
12107183 9 18129116562821915417
12422481 6 15985115076304070695
12553582 1 18334016102905977378
12633257 1 13110957626338308182
13103583 49 16988852669816318907
13224815 77 18200870665648157376
13383661 66 16969168392344187882
13533116 47 18200035182808378361
13583140 156 15266777711307318913
13692114 37 16985769506822969465
13782708 43 17629484095679380830
13911987 19 17754763820157644052
13965767 371 11743838045521741368
14251764 30 18408609188470766651
14705955 166 14764081007931524587
14950920 106 15195281980702075206
15163728 17 10665240232739197832
15183329 4 17967526870778835373
15238133 3 11959734888940354370
15664445 248 16661210389361194012
17349148 13 17703515493039130799
17909252 39 18334577958017537848
1813 80 18201727232219025580
20775438 99 18047460407608065107
20775530 9 18269548360589530174
21033650 10 15936404533808958477
21223535 225 11026612295308074802
21421861 104 17203608233145160544
21703447 108 18341886441550947856
21756936 100 8645612212418002338
22393880 68 16805322210261309926
23559900 14 17821723961896946613
23569914 152 17759208862226573391
238 59 17386011706087193664
25222932 49 17128160964764514015
2838139 119 12468354674018925838
345986 75 17846506936817750161
4017518 198 15377367381631162402
44062 13 18264770948069578405
46194498 28 17386579083829955518
463206 1 18337674233984646130
6034566 193 9438819695440357155
6669772 16 18123192574697591620
6823239 73 17386282207227413985
70251023 43 18335706061015847337
7970288 3 18341334396714695614
9981440 41 8827477477901446864

> <PUBCHEM_SHAPE_MULTIPOLES>
661.52
12.51
3.34
2.16
4.5
0.42
0.04
-11.08
2.47
-2.19
0.17
0.43
0
0.3

> <PUBCHEM_SHAPE_SELFOVERLAP>
1386.734

> <PUBCHEM_SHAPE_VOLUME>
361.8

> <PUBCHEM_COORDINATE_TYPE>
2
5
10

$$$$
