122234718
  -OEChem-09082015063D

 42 45  0     1  0  0  0  0  0999 V2000
    3.6784    0.6875   -0.6272 O   0  0  0  0  0  0  0  0  0  0  0  0
   -0.4067    3.5025    0.2939 O   0  0  0  0  0  0  0  0  0  0  0  0
   -1.5411   -1.3338   -0.2242 N   0  0  2  0  0  0  0  0  0  0  0  0
   -0.4891   -0.2983   -0.2432 C   0  0  1  0  0  0  0  0  0  0  0  0
   -1.1005    1.1454    0.0433 C   0  0  2  0  0  0  0  0  0  0  0  0
    0.4930   -0.3740    0.8620 C   0  0  0  0  0  0  0  0  0  0  0  0
    1.5707    0.6078    0.5132 C   0  0  2  0  0  0  0  0  0  0  0  0
    0.4036   -0.5356   -1.5579 C   0  0  0  0  0  0  0  0  0  0  0  0
    1.9565   -0.9606   -1.3237 C   0  0  1  0  0  0  0  0  0  0  0  0
    2.6791   -0.1878   -0.1177 C   0  0  1  0  0  0  0  0  0  0  0  0
   -2.1218    1.4934   -1.0306 C   0  0  0  0  0  0  0  0  0  0  0  0
    1.2374    1.9193    1.1663 C   0  0  0  0  0  0  0  0  0  0  0  0
   -0.1059    2.3186    0.4486 C   0  0  0  0  0  0  0  0  0  0  0  0
   -2.6456   -1.0055   -1.1430 C   0  0  0  0  0  0  0  0  0  0  0  0
   -2.0010   -1.6668    1.1299 C   0  0  0  0  0  0  0  0  0  0  0  0
   -3.2122    0.4171   -1.0288 C   0  0  0  0  0  0  0  0  0  0  0  0
    0.3692   -1.1812    1.9212 C   0  0  0  0  0  0  0  0  0  0  0  0
   -0.8320   -2.0718    2.0501 C   0  0  0  0  0  0  0  0  0  0  0  0
    2.0679   -2.4762   -1.1322 C   0  0  0  0  0  0  0  0  0  0  0  0
   -1.6748    1.0719    0.9830 H   0  0  0  0  0  0  0  0  0  0  0  0
    1.3862    1.0885   -0.4625 H   0  0  0  0  0  0  0  0  0  0  0  0
   -0.0442   -1.3000   -2.2059 H   0  0  0  0  0  0  0  0  0  0  0  0
    0.3904    0.3797   -2.1657 H   0  0  0  0  0  0  0  0  0  0  0  0
    2.4837   -0.7195   -2.2566 H   0  0  0  0  0  0  0  0  0  0  0  0
    3.1603   -0.8729    0.5890 H   0  0  0  0  0  0  0  0  0  0  0  0
   -1.6451    1.5550   -2.0151 H   0  0  0  0  0  0  0  0  0  0  0  0
   -2.5756    2.4722   -0.8387 H   0  0  0  0  0  0  0  0  0  0  0  0
    1.9945    2.6827    0.9612 H   0  0  0  0  0  0  0  0  0  0  0  0
    1.0684    1.8445    2.2442 H   0  0  0  0  0  0  0  0  0  0  0  0
   -3.4598   -1.7319   -1.0268 H   0  0  0  0  0  0  0  0  0  0  0  0
   -2.2924   -1.1455   -2.1721 H   0  0  0  0  0  0  0  0  0  0  0  0
   -2.7012   -2.5102    1.0864 H   0  0  0  0  0  0  0  0  0  0  0  0
   -2.5488   -0.8333    1.5856 H   0  0  0  0  0  0  0  0  0  0  0  0
   -3.7989    0.4997   -0.1053 H   0  0  0  0  0  0  0  0  0  0  0  0
   -3.9057    0.6010   -1.8575 H   0  0  0  0  0  0  0  0  0  0  0  0
    1.1318   -1.2086    2.6917 H   0  0  0  0  0  0  0  0  0  0  0  0
   -0.5228   -3.1002    1.8267 H   0  0  0  0  0  0  0  0  0  0  0  0
   -1.1812   -2.0570    3.0889 H   0  0  0  0  0  0  0  0  0  0  0  0
    1.6487   -3.0052   -1.9944 H   0  0  0  0  0  0  0  0  0  0  0  0
    3.1175   -2.7745   -1.0391 H   0  0  0  0  0  0  0  0  0  0  0  0
    1.5387   -2.8198   -0.2396 H   0  0  0  0  0  0  0  0  0  0  0  0
    4.3380    0.1378   -1.0836 H   0  0  0  0  0  0  0  0  0  0  0  0
  1 10  1  0  0  0  0
  1 42  1  0  0  0  0
  2 13  2  0  0  0  0
  3  4  1  0  0  0  0
  3 14  1  0  0  0  0
  3 15  1  0  0  0  0
  4  5  1  0  0  0  0
  4  6  1  0  0  0  0
  4  8  1  0  0  0  0
  5 11  1  0  0  0  0
  5 13  1  0  0  0  0
  5 20  1  0  0  0  0
  6  7  1  0  0  0  0
  6 17  2  0  0  0  0
  7 10  1  0  0  0  0
  7 12  1  0  0  0  0
  7 21  1  0  0  0  0
  8  9  1  0  0  0  0
  8 22  1  0  0  0  0
  8 23  1  0  0  0  0
  9 10  1  0  0  0  0
  9 19  1  0  0  0  0
  9 24  1  0  0  0  0
 10 25  1  0  0  0  0
 11 16  1  0  0  0  0
 11 26  1  0  0  0  0
 11 27  1  0  0  0  0
 12 13  1  0  0  0  0
 12 28  1  0  0  0  0
 12 29  1  0  0  0  0
 14 16  1  0  0  0  0
 14 30  1  0  0  0  0
 14 31  1  0  0  0  0
 15 18  1  0  0  0  0
 15 32  1  0  0  0  0
 15 33  1  0  0  0  0
 16 34  1  0  0  0  0
 16 35  1  0  0  0  0
 17 18  1  0  0  0  0
 17 36  1  0  0  0  0
 18 37  1  0  0  0  0
 18 38  1  0  0  0  0
 19 39  1  0  0  0  0
 19 40  1  0  0  0  0
 19 41  1  0  0  0  0
M  END
> <PUBCHEM_COMPOUND_CID>
122234718

> <PUBCHEM_CONFORMER_RMSD>
0.6

> <PUBCHEM_CONFORMER_DIVERSEORDER>
1

> <PUBCHEM_MMFF94_PARTIAL_CHARGES>
16
1 -0.68
10 0.28
12 0.06
13 0.45
14 0.27
15 0.27
17 -0.29
18 0.14
2 -0.57
3 -0.81
36 0.15
4 0.41
42 0.4
5 0.06
6 -0.28
7 0.14

> <PUBCHEM_EFFECTIVE_ROTOR_COUNT>
1.8

> <PUBCHEM_PHARMACOPHORE_FEATURES>
8
1 1 acceptor
1 1 donor
1 2 acceptor
1 3 cation
6 3 4 5 11 14 16 rings
6 3 4 6 15 17 18 rings
6 4 5 6 7 12 13 rings
6 4 6 7 8 9 10 rings

> <PUBCHEM_HEAVY_ATOM_COUNT>
19

> <PUBCHEM_ATOM_DEF_STEREO_COUNT>
5

> <PUBCHEM_ATOM_UDEF_STEREO_COUNT>
0

> <PUBCHEM_BOND_DEF_STEREO_COUNT>
0

> <PUBCHEM_BOND_UDEF_STEREO_COUNT>
0

> <PUBCHEM_ISOTOPIC_ATOM_COUNT>
0

> <PUBCHEM_COMPONENT_COUNT>
1

> <PUBCHEM_CACTVS_TAUTO_COUNT>
3

> <PUBCHEM_CONFORMER_ID>
0749275E00000001

> <PUBCHEM_MMFF94_ENERGY>
120.2251

> <PUBCHEM_FEATURE_SELFOVERLAP>
41.462

> <PUBCHEM_SHAPE_FINGERPRINT>
10863032 1 17095796737158965078
10948715 1 18040427763705724044
12423570 1 17408778360954585032
12654903 92 17845352466782952181
12716301 132 17750506454829931953
13132413 78 17323202963074962474
13299463 15 18060136518371236486
13544592 271 18339919424080825176
13898156 1 17399782814078006257
141345 1 16962433406644449323
144361 1 17846484942084258043
14817 1 17317590329877392274
15881359 60 16840253497049495587
16945 1 18272360941213126648
19765921 60 18114176376662828413
20511035 2 17397241198472119129
21501502 16 17915462692457560444
22112679 90 16894258093738604818
22344851 12 18190994941821622502
22802520 49 18342740676169747251
23419403 2 17756723187825248129
23526113 38 18334855030441792639
23558518 356 18122073004981179652
23559900 14 18187639237683743400
2748010 2 18197768015254015960
353137 74 18264203599953770237
430814 3 17177745262616549357
576247 118 17902549130084106058
5845 1 17395915032872033298
68419 9 17471282964326462545
81228 2 18340212873336965960

> <PUBCHEM_SHAPE_MULTIPOLES>
374.29
3.87
2.83
1.76
0.4
1.4
0.4
-0.31
-1.84
-0.22
0.74
-0.03
-0.94
0.86

> <PUBCHEM_SHAPE_SELFOVERLAP>
804.272

> <PUBCHEM_SHAPE_VOLUME>
204.1

> <PUBCHEM_COORDINATE_TYPE>
2
5
10

$$$$
