11328987
  -OEChem-09082016193D

 84 88  0     1  0  0  0  0  0999 V2000
    7.5916   -1.0395    0.4579 O   0  0  0  0  0  0  0  0  0  0  0  0
   -6.8800   -1.8886    0.3651 O   0  0  0  0  0  0  0  0  0  0  0  0
    1.9384    1.6496   -2.5298 O   0  0  0  0  0  0  0  0  0  0  0  0
   -7.4360    0.7811   -0.0929 O   0  0  0  0  0  0  0  0  0  0  0  0
    1.8058    1.0298   -0.1976 C   0  0  1  0  0  0  0  0  0  0  0  0
    2.0281   -0.4338   -0.7127 C   0  0  1  0  0  0  0  0  0  0  0  0
    3.3477   -0.9457   -0.0155 C   0  0  2  0  0  0  0  0  0  0  0  0
   -0.9098    1.2789    0.0603 C   0  0  2  0  0  0  0  0  0  0  0  0
    4.1320    0.3774    0.1009 C   0  0  1  0  0  0  0  0  0  0  0  0
   -1.3542   -0.1970   -0.2307 C   0  0  1  0  0  0  0  0  0  0  0  0
   -2.9104   -0.4247   -0.5028 C   0  0  2  0  0  0  0  0  0  0  0  0
    0.5497    1.3258    0.6581 C   0  0  0  0  0  0  0  0  0  0  0  0
    3.0855    1.3449    0.6492 C   0  0  0  0  0  0  0  0  0  0  0  0
   -3.7304    0.2349    0.6613 C   0  0  1  0  0  0  0  0  0  0  0  0
    0.8556   -1.4101   -0.6211 C   0  0  0  0  0  0  0  0  0  0  0  0
    5.5323    0.3050    0.7738 C   0  0  0  0  0  0  0  0  0  0  0  0
   -0.4400   -0.9105   -1.2594 C   0  0  0  0  0  0  0  0  0  0  0  0
   -1.8361    1.8429    1.1797 C   0  0  0  0  0  0  0  0  0  0  0  0
    4.1597   -1.9342   -0.8878 C   0  0  0  0  0  0  0  0  0  0  0  0
   -3.3315    1.7008    0.9009 C   0  0  0  0  0  0  0  0  0  0  0  0
   -5.2941   -0.0008    0.6199 C   0  0  2  0  0  0  0  0  0  0  0  0
   -3.1974   -1.9704   -0.4763 C   0  0  0  0  0  0  0  0  0  0  0  0
    6.1662   -1.0981    0.4943 C   0  0  1  0  0  0  0  0  0  0  0  0
    3.0339   -1.6188    1.3430 C   0  0  0  0  0  0  0  0  0  0  0  0
    5.6811   -1.7131   -0.8232 C   0  0  0  0  0  0  0  0  0  0  0  0
   -1.0188    2.2321   -1.1489 C   0  0  0  0  0  0  0  0  0  0  0  0
    1.8836    2.0007   -1.3559 C   0  0  0  0  0  0  0  0  0  0  0  0
   -3.3108    0.1071   -1.8984 C   0  0  0  0  0  0  0  0  0  0  0  0
   -5.6292   -1.3572   -0.0714 C   0  0  1  0  0  0  0  0  0  0  0  0
   -4.5337   -2.3917    0.1384 C   0  0  0  0  0  0  0  0  0  0  0  0
    6.4041    1.4344    0.1633 C   0  0  0  0  0  0  0  0  0  0  0  0
    5.5019    0.5664    2.2933 C   0  0  0  0  0  0  0  0  0  0  0  0
   -6.0666    1.1152   -0.1183 C   0  0  0  0  0  0  0  0  0  0  0  0
   -5.8182    0.0073    2.0830 C   0  0  0  0  0  0  0  0  0  0  0  0
    2.2628   -0.4023   -1.7839 H   0  0  0  0  0  0  0  0  0  0  0  0
    4.3256    0.7034   -0.9357 H   0  0  0  0  0  0  0  0  0  0  0  0
   -1.1956   -0.7211    0.7257 H   0  0  0  0  0  0  0  0  0  0  0  0
    0.5750    0.6586    1.5316 H   0  0  0  0  0  0  0  0  0  0  0  0
    0.6854    2.3367    1.0734 H   0  0  0  0  0  0  0  0  0  0  0  0
    2.8995    1.1680    1.7141 H   0  0  0  0  0  0  0  0  0  0  0  0
    3.4191    2.3842    0.5506 H   0  0  0  0  0  0  0  0  0  0  0  0
   -3.3867   -0.2945    1.5659 H   0  0  0  0  0  0  0  0  0  0  0  0
    0.6553   -1.7068    0.4125 H   0  0  0  0  0  0  0  0  0  0  0  0
    1.1535   -2.3320   -1.1389 H   0  0  0  0  0  0  0  0  0  0  0  0
   -0.2314   -0.2911   -2.1358 H   0  0  0  0  0  0  0  0  0  0  0  0
   -0.9464   -1.7982   -1.6516 H   0  0  0  0  0  0  0  0  0  0  0  0
   -1.6122    2.9040    1.3525 H   0  0  0  0  0  0  0  0  0  0  0  0
   -1.6176    1.3311    2.1271 H   0  0  0  0  0  0  0  0  0  0  0  0
    3.8606   -1.8688   -1.9412 H   0  0  0  0  0  0  0  0  0  0  0  0
    3.9370   -2.9672   -0.5916 H   0  0  0  0  0  0  0  0  0  0  0  0
   -3.8658    2.0976    1.7715 H   0  0  0  0  0  0  0  0  0  0  0  0
   -3.6222    2.3332    0.0577 H   0  0  0  0  0  0  0  0  0  0  0  0
   -2.4156   -2.4991    0.0843 H   0  0  0  0  0  0  0  0  0  0  0  0
   -3.1464   -2.3717   -1.4972 H   0  0  0  0  0  0  0  0  0  0  0  0
    5.9232   -1.7878    1.3087 H   0  0  0  0  0  0  0  0  0  0  0  0
    3.9295   -1.8840    1.9044 H   0  0  0  0  0  0  0  0  0  0  0  0
    2.4168   -0.9889    1.9900 H   0  0  0  0  0  0  0  0  0  0  0  0
    2.4959   -2.5629    1.1996 H   0  0  0  0  0  0  0  0  0  0  0  0
    6.1930   -2.6657   -1.0096 H   0  0  0  0  0  0  0  0  0  0  0  0
    5.9885   -1.0646   -1.6545 H   0  0  0  0  0  0  0  0  0  0  0  0
   -0.5024    3.1773   -0.9455 H   0  0  0  0  0  0  0  0  0  0  0  0
   -0.6112    1.8066   -2.0666 H   0  0  0  0  0  0  0  0  0  0  0  0
   -2.0441    2.5233   -1.3760 H   0  0  0  0  0  0  0  0  0  0  0  0
    1.8890    3.0737   -1.0942 H   0  0  0  0  0  0  0  0  0  0  0  0
   -2.5475   -0.1110   -2.6515 H   0  0  0  0  0  0  0  0  0  0  0  0
   -4.2295   -0.3510   -2.2722 H   0  0  0  0  0  0  0  0  0  0  0  0
   -3.4868    1.1823   -1.9076 H   0  0  0  0  0  0  0  0  0  0  0  0
   -5.7457   -1.2167   -1.1507 H   0  0  0  0  0  0  0  0  0  0  0  0
   -4.8408   -3.3601   -0.2761 H   0  0  0  0  0  0  0  0  0  0  0  0
   -4.4061   -2.5747    1.2133 H   0  0  0  0  0  0  0  0  0  0  0  0
    5.9250    2.4126    0.2847 H   0  0  0  0  0  0  0  0  0  0  0  0
    7.3862    1.4933    0.6460 H   0  0  0  0  0  0  0  0  0  0  0  0
    6.5703    1.2765   -0.9081 H   0  0  0  0  0  0  0  0  0  0  0  0
    4.8469   -0.1283    2.8237 H   0  0  0  0  0  0  0  0  0  0  0  0
    6.5037    0.4611    2.7262 H   0  0  0  0  0  0  0  0  0  0  0  0
    5.1582    1.5820    2.5195 H   0  0  0  0  0  0  0  0  0  0  0  0
   -5.7528    1.2102   -1.1607 H   0  0  0  0  0  0  0  0  0  0  0  0
   -5.9481    2.0873    0.3706 H   0  0  0  0  0  0  0  0  0  0  0  0
   -6.9004   -0.1465    2.1509 H   0  0  0  0  0  0  0  0  0  0  0  0
   -5.3458   -0.7868    2.6724 H   0  0  0  0  0  0  0  0  0  0  0  0
   -5.6046    0.9579    2.5826 H   0  0  0  0  0  0  0  0  0  0  0  0
    7.9221   -1.9446    0.3278 H   0  0  0  0  0  0  0  0  0  0  0  0
   -7.5720   -1.2509    0.1214 H   0  0  0  0  0  0  0  0  0  0  0  0
   -7.9146    1.4866   -0.5601 H   0  0  0  0  0  0  0  0  0  0  0  0
  1 23  1  0  0  0  0
  1 82  1  0  0  0  0
  2 29  1  0  0  0  0
  2 83  1  0  0  0  0
  3 27  2  0  0  0  0
  4 33  1  0  0  0  0
  4 84  1  0  0  0  0
  5  6  1  0  0  0  0
  5 12  1  0  0  0  0
  5 13  1  0  0  0  0
  5 27  1  0  0  0  0
  6  7  1  0  0  0  0
  6 15  1  0  0  0  0
  6 35  1  0  0  0  0
  7  9  1  0  0  0  0
  7 19  1  0  0  0  0
  7 24  1  0  0  0  0
  8 10  1  0  0  0  0
  8 12  1  0  0  0  0
  8 18  1  0  0  0  0
  8 26  1  0  0  0  0
  9 13  1  0  0  0  0
  9 16  1  0  0  0  0
  9 36  1  0  0  0  0
 10 11  1  0  0  0  0
 10 17  1  0  0  0  0
 10 37  1  0  0  0  0
 11 14  1  0  0  0  0
 11 22  1  0  0  0  0
 11 28  1  0  0  0  0
 12 38  1  0  0  0  0
 12 39  1  0  0  0  0
 13 40  1  0  0  0  0
 13 41  1  0  0  0  0
 14 20  1  0  0  0  0
 14 21  1  0  0  0  0
 14 42  1  0  0  0  0
 15 17  1  0  0  0  0
 15 43  1  0  0  0  0
 15 44  1  0  0  0  0
 16 23  1  0  0  0  0
 16 31  1  0  0  0  0
 16 32  1  0  0  0  0
 17 45  1  0  0  0  0
 17 46  1  0  0  0  0
 18 20  1  0  0  0  0
 18 47  1  0  0  0  0
 18 48  1  0  0  0  0
 19 25  1  0  0  0  0
 19 49  1  0  0  0  0
 19 50  1  0  0  0  0
 20 51  1  0  0  0  0
 20 52  1  0  0  0  0
 21 29  1  0  0  0  0
 21 33  1  0  0  0  0
 21 34  1  0  0  0  0
 22 30  1  0  0  0  0
 22 53  1  0  0  0  0
 22 54  1  0  0  0  0
 23 25  1  0  0  0  0
 23 55  1  0  0  0  0
 24 56  1  0  0  0  0
 24 57  1  0  0  0  0
 24 58  1  0  0  0  0
 25 59  1  0  0  0  0
 25 60  1  0  0  0  0
 26 61  1  0  0  0  0
 26 62  1  0  0  0  0
 26 63  1  0  0  0  0
 27 64  1  0  0  0  0
 28 65  1  0  0  0  0
 28 66  1  0  0  0  0
 28 67  1  0  0  0  0
 29 30  1  0  0  0  0
 29 68  1  0  0  0  0
 30 69  1  0  0  0  0
 30 70  1  0  0  0  0
 31 71  1  0  0  0  0
 31 72  1  0  0  0  0
 31 73  1  0  0  0  0
 32 74  1  0  0  0  0
 32 75  1  0  0  0  0
 32 76  1  0  0  0  0
 33 77  1  0  0  0  0
 33 78  1  0  0  0  0
 34 79  1  0  0  0  0
 34 80  1  0  0  0  0
 34 81  1  0  0  0  0
M  END
> <PUBCHEM_COMPOUND_CID>
11328987

> <PUBCHEM_CONFORMER_RMSD>
0.8

> <PUBCHEM_CONFORMER_DIVERSEORDER>
1

> <PUBCHEM_MMFF94_PARTIAL_CHARGES>
13
1 -0.68
2 -0.68
23 0.28
27 0.45
29 0.28
3 -0.57
33 0.28
4 -0.68
5 0.06
64 0.06
82 0.4
83 0.4
84 0.4

> <PUBCHEM_EFFECTIVE_ROTOR_COUNT>
4.8

> <PUBCHEM_PHARMACOPHORE_FEATURES>
13
1 1 acceptor
1 1 donor
1 2 acceptor
1 2 donor
1 3 acceptor
1 4 acceptor
1 4 donor
3 16 31 32 hydrophobe
5 5 6 7 9 13 rings
6 11 14 21 22 29 30 rings
6 7 9 16 19 23 25 rings
6 8 10 11 14 18 20 rings
7 5 6 8 10 12 15 17 rings

> <PUBCHEM_HEAVY_ATOM_COUNT>
34

> <PUBCHEM_ATOM_DEF_STEREO_COUNT>
11

> <PUBCHEM_ATOM_UDEF_STEREO_COUNT>
0

> <PUBCHEM_BOND_DEF_STEREO_COUNT>
0

> <PUBCHEM_BOND_UDEF_STEREO_COUNT>
0

> <PUBCHEM_ISOTOPIC_ATOM_COUNT>
0

> <PUBCHEM_COMPONENT_COUNT>
1

> <PUBCHEM_CACTVS_TAUTO_COUNT>
1

> <PUBCHEM_CONFORMER_ID>
00ACDDDB00000001

> <PUBCHEM_MMFF94_ENERGY>
185.4514

> <PUBCHEM_FEATURE_SELFOVERLAP>
66.079

> <PUBCHEM_SHAPE_FINGERPRINT>
10 15 18410575101848379064
10670039 82 8574438608053162339
11135609 12 18408321094484852676
12107698 1 17167860863842514749
12166972 35 18187648037148982524
12236239 1 18410012147673882192
12422481 6 18343308041660811365
12516196 113 17917711313853099921
12596602 18 18411417323613204250
12616971 3 17968380138587648551
13782708 43 16298386885312262577
13811026 1 18272930527096891583
14068700 675 17967532367751801844
14117953 113 18335985277356472189
14251764 18 18060138765092825691
14341114 176 18341899575549726454
14394314 77 18334576807267041353
14849402 71 18269557315939415928
14856354 85 15123503731389650933
14955137 171 18343867714855073840
15021287 119 17894638063072506605
15131766 46 15265341899994049504
15142383 8 17749664112995907029
15461852 350 16988838402594059023
15788980 27 18040438811057980309
15927050 60 17410205540555358376
16110190 28 18273497892049684023
17349148 13 18186241740502238704
1813 80 17894351060430480364
18222031 100 17894352164252853764
18608769 82 18272086124147732026
20028762 73 18409730677267179490
20511986 3 18339633529735598305
21033648 29 17346300618994446810
21130935 74 18131917052490827791
21223535 225 16515951606925261997
21267235 1 18343304743817108814
21859007 373 18190171296487315533
22122407 14 15913049849761540730
23522609 53 18118715229298161252
23559900 14 18271800268146533505
23569943 247 17975136444542208770
249057 3 18040152908181250781
3004659 81 18333452053815428793
3383291 50 18335423525863489675
34797466 226 17274830181751697996
350125 39 18343301483203798928
3633792 109 18200308811281077397
392239 28 17846505863149629857
4058900 60 11383568792868708165
4073 2 18335423508039489722
5104073 3 18130782309936796242
59755656 215 18342461391674155406
6009941 240 17676488329234675529
67856867 119 18337393871515377853

> <PUBCHEM_SHAPE_MULTIPOLES>
676.23
18.21
2.35
1.59
1.09
0.24
-0.08
4.52
5.63
0.26
-0.27
-0.32
-0.46
0.08

> <PUBCHEM_SHAPE_SELFOVERLAP>
1430.485

> <PUBCHEM_SHAPE_VOLUME>
375

> <PUBCHEM_COORDINATE_TYPE>
2
5
10

$$$$
