11129147
  -OEChem-09082014543D

 44 47  0     1  0  0  0  0  0999 V2000
    1.4322    2.1981    1.2256 O   0  0  0  0  0  0  0  0  0  0  0  0
   -1.6299   -0.8422    2.5643 O   0  0  0  0  0  0  0  0  0  0  0  0
    1.5923   -0.6257   -1.0528 N   0  0  1  0  0  0  0  0  0  0  0  0
    0.2831   -0.2258   -0.4587 C   0  0  2  0  0  0  0  0  0  0  0  0
    0.0583    1.3089   -0.6204 C   0  0  1  0  0  0  0  0  0  0  0  0
   -1.2977    1.6903    0.0126 C   0  0  1  0  0  0  0  0  0  0  0  0
    0.2367   -0.6440    1.0428 C   0  0  2  0  0  0  0  0  0  0  0  0
   -0.8529   -0.9012   -1.3153 C   0  0  0  0  0  0  0  0  0  0  0  0
    1.2432    2.1870   -0.1802 C   0  0  2  0  0  0  0  0  0  0  0  0
   -2.2930   -0.4610   -0.9861 C   0  0  1  0  0  0  0  0  0  0  0  0
   -2.4197    1.0616   -0.8393 C   0  0  0  0  0  0  0  0  0  0  0  0
   -1.4346    1.2804    1.4849 C   0  0  0  0  0  0  0  0  0  0  0  0
    0.4659   -2.1483    1.2240 C   0  0  0  0  0  0  0  0  0  0  0  0
   -1.0229   -0.1543    1.7431 C   0  0  0  0  0  0  0  0  0  0  0  0
    2.7325    0.1934   -0.6117 C   0  0  0  0  0  0  0  0  0  0  0  0
    2.5125    1.6851   -0.8627 C   0  0  0  0  0  0  0  0  0  0  0  0
    1.8854   -2.0608   -0.8808 C   0  0  0  0  0  0  0  0  0  0  0  0
    1.7753   -2.5652    0.5600 C   0  0  0  0  0  0  0  0  0  0  0  0
   -3.2668   -0.9764   -2.0493 C   0  0  0  0  0  0  0  0  0  0  0  0
   -0.0299    1.5103   -1.7012 H   0  0  0  0  0  0  0  0  0  0  0  0
   -1.4236    2.7795   -0.0439 H   0  0  0  0  0  0  0  0  0  0  0  0
    1.0473   -0.1508    1.5924 H   0  0  0  0  0  0  0  0  0  0  0  0
   -0.8176   -1.9935   -1.2417 H   0  0  0  0  0  0  0  0  0  0  0  0
   -0.6612   -0.6748   -2.3751 H   0  0  0  0  0  0  0  0  0  0  0  0
    1.0693    3.2240   -0.4934 H   0  0  0  0  0  0  0  0  0  0  0  0
   -2.5960   -0.9332   -0.0456 H   0  0  0  0  0  0  0  0  0  0  0  0
   -3.3994    1.3111   -0.4128 H   0  0  0  0  0  0  0  0  0  0  0  0
   -2.3978    1.5248   -1.8351 H   0  0  0  0  0  0  0  0  0  0  0  0
   -2.4771    1.3989    1.8044 H   0  0  0  0  0  0  0  0  0  0  0  0
   -0.8381    1.9201    2.1393 H   0  0  0  0  0  0  0  0  0  0  0  0
   -0.3700   -2.7251    0.8119 H   0  0  0  0  0  0  0  0  0  0  0  0
    0.5084   -2.4010    2.2907 H   0  0  0  0  0  0  0  0  0  0  0  0
    3.6272   -0.1030   -1.1737 H   0  0  0  0  0  0  0  0  0  0  0  0
    2.9645    0.0330    0.4474 H   0  0  0  0  0  0  0  0  0  0  0  0
    3.3820    2.2367   -0.4856 H   0  0  0  0  0  0  0  0  0  0  0  0
    2.4505    1.8685   -1.9427 H   0  0  0  0  0  0  0  0  0  0  0  0
    2.8869   -2.2896   -1.2678 H   0  0  0  0  0  0  0  0  0  0  0  0
    1.2124   -2.6462   -1.5177 H   0  0  0  0  0  0  0  0  0  0  0  0
    2.6161   -2.1802    1.1498 H   0  0  0  0  0  0  0  0  0  0  0  0
    1.8614   -3.6578    0.5743 H   0  0  0  0  0  0  0  0  0  0  0  0
   -3.2153   -2.0676   -2.1258 H   0  0  0  0  0  0  0  0  0  0  0  0
   -4.2971   -0.7063   -1.7946 H   0  0  0  0  0  0  0  0  0  0  0  0
   -3.0404   -0.5567   -3.0354 H   0  0  0  0  0  0  0  0  0  0  0  0
    0.9121    2.9369    1.5841 H   0  0  0  0  0  0  0  0  0  0  0  0
  1  9  1  0  0  0  0
  1 44  1  0  0  0  0
  2 14  2  0  0  0  0
  3  4  1  0  0  0  0
  3 15  1  0  0  0  0
  3 17  1  0  0  0  0
  4  5  1  0  0  0  0
  4  7  1  0  0  0  0
  4  8  1  0  0  0  0
  5  6  1  0  0  0  0
  5  9  1  0  0  0  0
  5 20  1  0  0  0  0
  6 11  1  0  0  0  0
  6 12  1  0  0  0  0
  6 21  1  0  0  0  0
  7 13  1  0  0  0  0
  7 14  1  0  0  0  0
  7 22  1  0  0  0  0
  8 10  1  0  0  0  0
  8 23  1  0  0  0  0
  8 24  1  0  0  0  0
  9 16  1  0  0  0  0
  9 25  1  0  0  0  0
 10 11  1  0  0  0  0
 10 19  1  0  0  0  0
 10 26  1  0  0  0  0
 11 27  1  0  0  0  0
 11 28  1  0  0  0  0
 12 14  1  0  0  0  0
 12 29  1  0  0  0  0
 12 30  1  0  0  0  0
 13 18  1  0  0  0  0
 13 31  1  0  0  0  0
 13 32  1  0  0  0  0
 15 16  1  0  0  0  0
 15 33  1  0  0  0  0
 15 34  1  0  0  0  0
 16 35  1  0  0  0  0
 16 36  1  0  0  0  0
 17 18  1  0  0  0  0
 17 37  1  0  0  0  0
 17 38  1  0  0  0  0
 18 39  1  0  0  0  0
 18 40  1  0  0  0  0
 19 41  1  0  0  0  0
 19 42  1  0  0  0  0
 19 43  1  0  0  0  0
M  END
> <PUBCHEM_COMPOUND_CID>
11129147

> <PUBCHEM_CONFORMER_RMSD>
0.6

> <PUBCHEM_CONFORMER_DIVERSEORDER>
1

> <PUBCHEM_MMFF94_PARTIAL_CHARGES>
11
1 -0.68
12 0.06
14 0.45
15 0.27
17 0.27
2 -0.57
3 -0.81
4 0.27
44 0.4
7 0.06
9 0.28

> <PUBCHEM_EFFECTIVE_ROTOR_COUNT>
2

> <PUBCHEM_PHARMACOPHORE_FEATURES>
8
1 1 acceptor
1 1 donor
1 2 acceptor
1 3 cation
6 3 4 5 9 15 16 rings
6 3 4 7 13 17 18 rings
6 4 5 6 7 12 14 rings
6 4 5 6 8 10 11 rings

> <PUBCHEM_HEAVY_ATOM_COUNT>
19

> <PUBCHEM_ATOM_DEF_STEREO_COUNT>
6

> <PUBCHEM_ATOM_UDEF_STEREO_COUNT>
0

> <PUBCHEM_BOND_DEF_STEREO_COUNT>
0

> <PUBCHEM_BOND_UDEF_STEREO_COUNT>
0

> <PUBCHEM_ISOTOPIC_ATOM_COUNT>
0

> <PUBCHEM_COMPONENT_COUNT>
1

> <PUBCHEM_CACTVS_TAUTO_COUNT>
2

> <PUBCHEM_CONFORMER_ID>
00A9D13B00000001

> <PUBCHEM_MMFF94_ENERGY>
48.23

> <PUBCHEM_FEATURE_SELFOVERLAP>
42.338

> <PUBCHEM_SHAPE_FINGERPRINT>
10863032 1 17842528809100712144
10948715 1 16951667267953015925
12138202 97 17533492593391401140
12423570 1 15432896360406239831
13027679 85 17610657152900276394
13172582 1 17696195807134397004
13898156 1 17346333569429179009
141345 1 13433456111893845353
144361 1 18343580737428995676
14617773 55 16914838056560227509
14761567 1 17461743704576061362
14817 1 15105708401781257971
15001771 113 18059848442050903933
15852999 172 17168132468672940759
15881359 60 17615971444457543041
16945 1 18129655434407576413
19010151 120 18201148897798147670
20511035 2 17834710134666195164
21330990 113 17180019413840892020
21452121 199 17913169218792701015
22112679 90 18056475058645998854
22344851 341 18056176180451222685
23419403 2 17895492382947775539
238 59 18334856172813143718
2748010 2 17970094238513107554
353137 74 18272364338547971925
535629 181 17614279961787653279
5845 1 11871114926014654633
68419 9 17417828222230201395
6992083 37 17626956278710443934

> <PUBCHEM_SHAPE_MULTIPOLES>
374.29
3.63
2.64
1.97
0.85
0.04
-0.78
-0.3
1.79
-1.51
-0.27
1.14
-0.56
-0.51

> <PUBCHEM_SHAPE_SELFOVERLAP>
803.314

> <PUBCHEM_SHAPE_VOLUME>
201.3

> <PUBCHEM_COORDINATE_TYPE>
2
5
10

$$$$
