60145017
  -OEChem-09082015493D

 42 46  0     1  0  0  0  0  0999 V2000
    3.2125   -0.5186   -0.7029 O   0  0  0  0  0  0  0  0  0  0  0  0
    1.3239   -2.7873   -0.5951 O   0  0  0  0  0  0  0  0  0  0  0  0
   -0.6036    1.0233   -1.9662 O   0  0  0  0  0  0  0  0  0  0  0  0
   -3.4869   -0.6839   -1.0829 O   0  0  0  0  0  0  0  0  0  0  0  0
    3.2857    0.2062    0.5826 N   0  0  2  0  0  0  0  0  0  0  0  0
    1.0535   -0.4231   -0.0397 C   0  0  2  0  0  0  0  0  0  0  0  0
   -0.2675    0.2882    0.3344 C   0  0  1  0  0  0  0  0  0  0  0  0
    2.0000   -0.2554    1.1688 C   0  0  2  0  0  0  0  0  0  0  0  0
   -1.1354   -0.8371    0.9616 C   0  0  2  0  0  0  0  0  0  0  0  0
    1.9589    0.0187   -1.1845 C   0  0  1  0  0  0  0  0  0  0  0  0
    0.1466    1.3312    1.3829 C   0  0  0  0  0  0  0  0  0  0  0  0
    1.2956    0.6821    2.1577 C   0  0  0  0  0  0  0  0  0  0  0  0
    0.5998   -1.8730   -0.2191 C   0  0  0  0  0  0  0  0  0  0  0  0
   -0.8632   -2.0590    0.0878 C   0  0  0  0  0  0  0  0  0  0  0  0
   -1.0458    0.9192   -0.8238 C   0  0  0  0  0  0  0  0  0  0  0  0
   -2.6190   -0.4921    1.1603 C   0  0  0  0  0  0  0  0  0  0  0  0
    2.3321    1.4905   -1.1769 C   0  0  0  0  0  0  0  0  0  0  0  0
    3.2254    1.5826    0.0547 C   0  0  0  0  0  0  0  0  0  0  0  0
   -3.2931    0.2404   -0.0100 C   0  0  1  0  0  0  0  0  0  0  0  0
   -2.4400    1.4097   -0.5017 C   0  0  0  0  0  0  0  0  0  0  0  0
   -4.6794    0.7375    0.4121 C   0  0  0  0  0  0  0  0  0  0  0  0
    2.1988   -1.2120    1.6685 H   0  0  0  0  0  0  0  0  0  0  0  0
   -0.7499   -1.0875    1.9605 H   0  0  0  0  0  0  0  0  0  0  0  0
    1.7123   -0.3873   -2.1689 H   0  0  0  0  0  0  0  0  0  0  0  0
   -0.6729    1.6030    2.0568 H   0  0  0  0  0  0  0  0  0  0  0  0
    0.4793    2.2602    0.9087 H   0  0  0  0  0  0  0  0  0  0  0  0
    1.9601    1.4213    2.6156 H   0  0  0  0  0  0  0  0  0  0  0  0
    0.8900    0.0898    2.9873 H   0  0  0  0  0  0  0  0  0  0  0  0
   -1.4179   -2.0594   -0.8523 H   0  0  0  0  0  0  0  0  0  0  0  0
   -1.0310   -2.9914    0.6325 H   0  0  0  0  0  0  0  0  0  0  0  0
   -2.6895    0.1440    2.0530 H   0  0  0  0  0  0  0  0  0  0  0  0
   -3.1647   -1.4159    1.3924 H   0  0  0  0  0  0  0  0  0  0  0  0
    1.4834    2.1744   -1.1436 H   0  0  0  0  0  0  0  0  0  0  0  0
    2.9233    1.7300   -2.0690 H   0  0  0  0  0  0  0  0  0  0  0  0
    4.2345    1.8969   -0.2382 H   0  0  0  0  0  0  0  0  0  0  0  0
    2.8761    2.3204    0.7815 H   0  0  0  0  0  0  0  0  0  0  0  0
   -2.3665    2.2090    0.2432 H   0  0  0  0  0  0  0  0  0  0  0  0
   -2.8659    1.8391   -1.4166 H   0  0  0  0  0  0  0  0  0  0  0  0
   -5.3108   -0.0951    0.7428 H   0  0  0  0  0  0  0  0  0  0  0  0
   -5.1984    1.2036   -0.4334 H   0  0  0  0  0  0  0  0  0  0  0  0
   -4.6173    1.4681    1.2253 H   0  0  0  0  0  0  0  0  0  0  0  0
   -4.0311   -1.4197   -0.7540 H   0  0  0  0  0  0  0  0  0  0  0  0
  1  5  1  0  0  0  0
  1 10  1  0  0  0  0
  2 13  2  0  0  0  0
  3 15  2  0  0  0  0
  4 19  1  0  0  0  0
  4 42  1  0  0  0  0
  5  8  1  0  0  0  0
  5 18  1  0  0  0  0
  6  7  1  0  0  0  0
  6  8  1  0  0  0  0
  6 10  1  0  0  0  0
  6 13  1  0  0  0  0
  7  9  1  0  0  0  0
  7 11  1  0  0  0  0
  7 15  1  0  0  0  0
  8 12  1  0  0  0  0
  8 22  1  0  0  0  0
  9 14  1  0  0  0  0
  9 16  1  0  0  0  0
  9 23  1  0  0  0  0
 10 17  1  0  0  0  0
 10 24  1  0  0  0  0
 11 12  1  0  0  0  0
 11 25  1  0  0  0  0
 11 26  1  0  0  0  0
 12 27  1  0  0  0  0
 12 28  1  0  0  0  0
 13 14  1  0  0  0  0
 14 29  1  0  0  0  0
 14 30  1  0  0  0  0
 15 20  1  0  0  0  0
 16 19  1  0  0  0  0
 16 31  1  0  0  0  0
 16 32  1  0  0  0  0
 17 18  1  0  0  0  0
 17 33  1  0  0  0  0
 17 34  1  0  0  0  0
 18 35  1  0  0  0  0
 18 36  1  0  0  0  0
 19 20  1  0  0  0  0
 19 21  1  0  0  0  0
 20 37  1  0  0  0  0
 20 38  1  0  0  0  0
 21 39  1  0  0  0  0
 21 40  1  0  0  0  0
 21 41  1  0  0  0  0
M  END
> <PUBCHEM_COMPOUND_CID>
60145017

> <PUBCHEM_CONFORMER_RMSD>
0.6

> <PUBCHEM_CONFORMER_DIVERSEORDER>
1
2

> <PUBCHEM_MMFF94_PARTIAL_CHARGES>
16
1 -0.18
10 0.28
13 0.45
14 0.06
15 0.45
18 0.27
19 0.28
2 -0.57
20 0.06
3 -0.57
4 -0.68
42 0.4
5 -0.64
6 0.06
7 0.06
8 0.27

> <PUBCHEM_EFFECTIVE_ROTOR_COUNT>
1.8

> <PUBCHEM_PHARMACOPHORE_FEATURES>
8
1 2 acceptor
1 3 acceptor
1 4 acceptor
1 4 donor
5 6 7 8 11 12 rings
5 6 7 9 13 14 rings
6 7 9 15 16 19 20 rings
7 1 5 6 8 10 17 18 rings

> <PUBCHEM_HEAVY_ATOM_COUNT>
21

> <PUBCHEM_ATOM_DEF_STEREO_COUNT>
6

> <PUBCHEM_ATOM_UDEF_STEREO_COUNT>
0

> <PUBCHEM_BOND_DEF_STEREO_COUNT>
0

> <PUBCHEM_BOND_UDEF_STEREO_COUNT>
0

> <PUBCHEM_ISOTOPIC_ATOM_COUNT>
0

> <PUBCHEM_COMPONENT_COUNT>
1

> <PUBCHEM_CACTVS_TAUTO_COUNT>
4

> <PUBCHEM_CONFORMER_ID>
0395BD7900000001

> <PUBCHEM_MMFF94_ENERGY>
77.6277

> <PUBCHEM_FEATURE_SELFOVERLAP>
41.327

> <PUBCHEM_SHAPE_FINGERPRINT>
10863032 1 18188777274345056056
10948715 1 18262522631695955064
11132069 177 18187361056108230461
12423570 1 11577113960441961934
12491281 212 17603878783742279345
12592029 89 18114464466332397410
12716301 132 18125990809565891482
13140716 1 18116155643468654617
13172582 1 18040999561481717965
13224815 77 18334852836087680471
13538477 17 17313658355942214723
13581323 91 17603583023635491128
13583140 156 16298657382732352789
14115302 16 18343026601054258410
144361 1 18187653538832770344
14817 1 10794730142412652898
15309172 13 18408040719357230323
15775835 57 18201999924019095415
16945 1 18337124413698431570
18186145 218 18343023267816998845
19862831 5 17275107202319425185
23402539 116 18335410275091879948
23419403 2 15673719957044353770
23493267 7 17749686150214698426
23557571 272 17677636266075570523
23559900 14 17988651835307691856
238 59 18122311671965948389
25 1 18202001018956090251
2748010 2 17913206752121471635
296302 2 17917995009412311449
3286 77 17987499533239894131
3323516 105 17917709115130504919
34934 24 17386282211411579181
458136 41 18341062847216884707
474 4 16772652490190654528
5337951 7 17846215604748546544
69090 78 18260546761728958916
7364860 26 18339925887954001102
81228 2 17692796503750079962

> <PUBCHEM_SHAPE_MULTIPOLES>
403.71
5.76
1.93
1.54
3.68
0.98
0.27
-1.63
-0.21
-0.46
-0.38
-0.35
-0.37
0.19

> <PUBCHEM_SHAPE_SELFOVERLAP>
909.099

> <PUBCHEM_SHAPE_VOLUME>
217.3

> <PUBCHEM_COORDINATE_TYPE>
2
5
10

$$$$
