5462446
  -OEChem-09082015203D

 46 49  0     1  0  0  0  0  0999 V2000
   -4.6627    0.5905   -0.1140 O   0  0  0  0  0  0  0  0  0  0  0  0
    1.5019    1.4110    1.1245 N   0  0  2  0  0  0  0  0  0  0  0  0
   -2.6059   -0.0402   -0.9225 N   0  0  0  0  0  0  0  0  0  0  0  0
    0.9451    0.1985    0.4468 C   0  0  1  0  0  0  0  0  0  0  0  0
    1.6322   -0.0236   -0.9427 C   0  0  1  0  0  0  0  0  0  0  0  0
    0.9390   -1.1949   -1.6666 C   0  0  1  0  0  0  0  0  0  0  0  0
    1.1882   -1.1080    1.2818 C   0  0  0  0  0  0  0  0  0  0  0  0
    0.6570   -2.3913    0.6073 C   0  0  1  0  0  0  0  0  0  0  0  0
    1.1287   -2.4912   -0.8513 C   0  0  0  0  0  0  0  0  0  0  0  0
   -0.5918    0.3165    0.2897 C   0  0  0  0  0  0  0  0  0  0  0  0
    1.6727    1.2409   -1.8195 C   0  0  0  0  0  0  0  0  0  0  0  0
   -0.5479   -0.8788   -1.9248 C   0  0  0  0  0  0  0  0  0  0  0  0
   -1.2410   -0.1683   -0.7897 C   0  0  0  0  0  0  0  0  0  0  0  0
    2.2605    2.4111   -1.0481 C   0  0  0  0  0  0  0  0  0  0  0  0
    1.5082    2.6057    0.2632 C   0  0  0  0  0  0  0  0  0  0  0  0
   -1.3801    0.9779    1.3977 C   0  0  0  0  0  0  0  0  0  0  0  0
    1.0880   -3.6295    1.3963 C   0  0  0  0  0  0  0  0  0  0  0  0
    2.8036    1.2339    1.7693 C   0  0  0  0  0  0  0  0  0  0  0  0
   -2.8360    0.5338    1.4367 C   0  0  0  0  0  0  0  0  0  0  0  0
   -3.4597    0.4059    0.0658 C   0  0  0  0  0  0  0  0  0  0  0  0
    2.6803   -0.3117   -0.7720 H   0  0  0  0  0  0  0  0  0  0  0  0
    1.4205   -1.3562   -2.6403 H   0  0  0  0  0  0  0  0  0  0  0  0
    0.7401   -1.0143    2.2800 H   0  0  0  0  0  0  0  0  0  0  0  0
    2.2654   -1.2535    1.4374 H   0  0  0  0  0  0  0  0  0  0  0  0
   -0.4391   -2.3798    0.6245 H   0  0  0  0  0  0  0  0  0  0  0  0
    0.6115   -3.3212   -1.3489 H   0  0  0  0  0  0  0  0  0  0  0  0
    2.1968   -2.7477   -0.8653 H   0  0  0  0  0  0  0  0  0  0  0  0
    0.6736    1.5233   -2.1683 H   0  0  0  0  0  0  0  0  0  0  0  0
    2.2744    1.0527   -2.7165 H   0  0  0  0  0  0  0  0  0  0  0  0
   -1.0792   -1.8110   -2.1565 H   0  0  0  0  0  0  0  0  0  0  0  0
   -0.6296   -0.2524   -2.8226 H   0  0  0  0  0  0  0  0  0  0  0  0
    3.3269    2.2402   -0.8601 H   0  0  0  0  0  0  0  0  0  0  0  0
    2.1896    3.3224   -1.6529 H   0  0  0  0  0  0  0  0  0  0  0  0
    1.9294    3.4621    0.8049 H   0  0  0  0  0  0  0  0  0  0  0  0
    0.4760    2.9000    0.0389 H   0  0  0  0  0  0  0  0  0  0  0  0
   -0.9333    0.7584    2.3740 H   0  0  0  0  0  0  0  0  0  0  0  0
   -1.3398    2.0648    1.2605 H   0  0  0  0  0  0  0  0  0  0  0  0
    0.7213   -3.5788    2.4269 H   0  0  0  0  0  0  0  0  0  0  0  0
    0.6833   -4.5393    0.9404 H   0  0  0  0  0  0  0  0  0  0  0  0
    2.1787   -3.7235    1.4291 H   0  0  0  0  0  0  0  0  0  0  0  0
    3.5733    0.8676    1.0829 H   0  0  0  0  0  0  0  0  0  0  0  0
    2.7315    0.5479    2.6193 H   0  0  0  0  0  0  0  0  0  0  0  0
    3.1584    2.1786    2.1983 H   0  0  0  0  0  0  0  0  0  0  0  0
   -3.0112   -0.2890   -1.8206 H   0  0  0  0  0  0  0  0  0  0  0  0
   -3.4231    1.2426    2.0309 H   0  0  0  0  0  0  0  0  0  0  0  0
   -2.9133   -0.4490    1.9184 H   0  0  0  0  0  0  0  0  0  0  0  0
  1 20  2  0  0  0  0
  2  4  1  0  0  0  0
  2 15  1  0  0  0  0
  2 18  1  0  0  0  0
  3 13  1  0  0  0  0
  3 20  1  0  0  0  0
  3 44  1  0  0  0  0
  4  5  1  0  0  0  0
  4  7  1  0  0  0  0
  4 10  1  0  0  0  0
  5  6  1  0  0  0  0
  5 11  1  0  0  0  0
  5 21  1  0  0  0  0
  6  9  1  0  0  0  0
  6 12  1  0  0  0  0
  6 22  1  0  0  0  0
  7  8  1  0  0  0  0
  7 23  1  0  0  0  0
  7 24  1  0  0  0  0
  8  9  1  0  0  0  0
  8 17  1  0  0  0  0
  8 25  1  0  0  0  0
  9 26  1  0  0  0  0
  9 27  1  0  0  0  0
 10 13  2  0  0  0  0
 10 16  1  0  0  0  0
 11 14  1  0  0  0  0
 11 28  1  0  0  0  0
 11 29  1  0  0  0  0
 12 13  1  0  0  0  0
 12 30  1  0  0  0  0
 12 31  1  0  0  0  0
 14 15  1  0  0  0  0
 14 32  1  0  0  0  0
 14 33  1  0  0  0  0
 15 34  1  0  0  0  0
 15 35  1  0  0  0  0
 16 19  1  0  0  0  0
 16 36  1  0  0  0  0
 16 37  1  0  0  0  0
 17 38  1  0  0  0  0
 17 39  1  0  0  0  0
 17 40  1  0  0  0  0
 18 41  1  0  0  0  0
 18 42  1  0  0  0  0
 18 43  1  0  0  0  0
 19 20  1  0  0  0  0
 19 45  1  0  0  0  0
 19 46  1  0  0  0  0
M  END
> <PUBCHEM_COMPOUND_CID>
5462446

> <PUBCHEM_CONFORMER_RMSD>
0.6

> <PUBCHEM_CONFORMER_DIVERSEORDER>
1

> <PUBCHEM_MMFF94_PARTIAL_CHARGES>
13
1 -0.57
10 -0.28
12 0.14
13 -0.03
15 0.27
16 0.14
18 0.27
19 0.06
2 -0.81
20 0.57
3 -0.54
4 0.41
44 0.37

> <PUBCHEM_EFFECTIVE_ROTOR_COUNT>
2.2

> <PUBCHEM_PHARMACOPHORE_FEATURES>
7
1 1 acceptor
1 2 cation
1 3 donor
6 2 4 5 11 14 15 rings
6 3 10 13 16 19 20 rings
6 4 5 6 10 12 13 rings
6 4 5 6 7 8 9 rings

> <PUBCHEM_HEAVY_ATOM_COUNT>
20

> <PUBCHEM_ATOM_DEF_STEREO_COUNT>
4

> <PUBCHEM_ATOM_UDEF_STEREO_COUNT>
0

> <PUBCHEM_BOND_DEF_STEREO_COUNT>
0

> <PUBCHEM_BOND_UDEF_STEREO_COUNT>
0

> <PUBCHEM_ISOTOPIC_ATOM_COUNT>
0

> <PUBCHEM_COMPONENT_COUNT>
1

> <PUBCHEM_CACTVS_TAUTO_COUNT>
2

> <PUBCHEM_CONFORMER_ID>
005359AE00000001

> <PUBCHEM_MMFF94_ENERGY>
46.2698

> <PUBCHEM_FEATURE_SELFOVERLAP>
37.169

> <PUBCHEM_SHAPE_FINGERPRINT>
10863032 1 18191045575375645934
10948715 1 18191596456307675596
11578080 2 17756140090639456836
12326174 3 18338241466067544494
12423570 1 13674158625051287814
12716301 132 17978523244954512042
12788726 201 17402324266396579782
13134695 92 18049703149519618429
13681431 1 18121227480201758006
141345 1 12284852174795939998
14142880 1 17034719072020678821
14181834 199 18056170528406130293
14713325 29 17400397883866279604
14787075 74 18267316326626836694
14817 1 12567330777958100126
15881359 60 14422034154699933172
15906896 17 17834951254224878194
16945 1 17982487899047574308
19765921 60 18270113664232132225
20559304 39 17702949119643333399
20600515 1 17120314437329464164
20645476 183 18049440636697107172
21524375 3 18270961374553795805
2255824 54 18338811013317663743
22802520 49 16270537436817815285
23419403 2 17686588296280137396
238 59 18270141091903554723
25 1 18126595454919423140
2748010 2 16626595667601403340
298252 57 17560532805680983308
394222 165 18201427108483604131
430814 3 18340209720682900860
4340502 62 18338510945976239355
5845 1 11399136696079795246
6442390 28 17974597949926049563
7364860 26 17775284919771128345
81228 2 17328310649720542538
9981440 41 17198250459312752200

> <PUBCHEM_SHAPE_MULTIPOLES>
395.76
4.41
3.07
1.96
6.03
2.14
-0.16
-2.44
0.48
-2.65
0.74
-0.69
0.13
-0.39

> <PUBCHEM_SHAPE_SELFOVERLAP>
849.315

> <PUBCHEM_SHAPE_VOLUME>
214.5

> <PUBCHEM_COORDINATE_TYPE>
2
5
10

$$$$
