12313728
  -OEChem-09082016223D

 78 81  0     1  0  0  0  0  0999 V2000
    5.5729   -2.2268   -1.4903 O   0  0  0  0  0  0  0  0  0  0  0  0
   -6.3286    1.4827   -0.5622 O   0  0  0  0  0  0  0  0  0  0  0  0
    2.9661    0.2011    0.7370 C   0  0  1  0  0  0  0  0  0  0  0  0
   -2.8927    0.0236    0.5799 C   0  0  1  0  0  0  0  0  0  0  0  0
    3.4410    0.5928   -0.7200 C   0  0  2  0  0  0  0  0  0  0  0  0
   -3.3912   -0.7167   -0.7227 C   0  0  2  0  0  0  0  0  0  0  0  0
    1.4255    0.5677    0.8406 C   0  0  1  0  0  0  0  0  0  0  0  0
   -1.3913   -0.3910    0.8674 C   0  0  1  0  0  0  0  0  0  0  0  0
    4.8486    0.0731   -1.1795 C   0  0  0  0  0  0  0  0  0  0  0  0
   -4.8523   -0.3483   -1.1718 C   0  0  0  0  0  0  0  0  0  0  0  0
    0.7387    0.0812    2.1288 C   0  0  0  0  0  0  0  0  0  0  0  0
   -0.7598    0.3333    2.0711 C   0  0  0  0  0  0  0  0  0  0  0  0
    3.1601   -1.3268    0.9062 C   0  0  0  0  0  0  0  0  0  0  0  0
   -2.9565    1.5642    0.3415 C   0  0  0  0  0  0  0  0  0  0  0  0
    3.2108    2.0984   -0.9904 C   0  0  0  0  0  0  0  0  0  0  0  0
   -3.1522   -2.2431   -0.6591 C   0  0  0  0  0  0  0  0  0  0  0  0
    1.2203    2.0530    0.5448 C   0  0  0  0  0  0  0  0  0  0  0  0
   -1.2446   -1.9079    0.9060 C   0  0  0  0  0  0  0  0  0  0  0  0
    1.7439    2.4903   -0.7998 C   0  0  0  0  0  0  0  0  0  0  0  0
   -1.6975   -2.5901   -0.3579 C   0  0  0  0  0  0  0  0  0  0  0  0
    3.7387    0.9321    1.8629 C   0  0  0  0  0  0  0  0  0  0  0  0
   -3.7762   -0.3135    1.8075 C   0  0  0  0  0  0  0  0  0  0  0  0
    4.5778   -1.7955    0.6211 C   0  0  0  0  0  0  0  0  0  0  0  0
   -4.0156    2.0420   -0.6442 C   0  0  0  0  0  0  0  0  0  0  0  0
    5.0158   -1.3986   -0.7664 C   0  0  0  0  0  0  0  0  0  0  0  0
   -5.1765    1.0881   -0.7442 C   0  0  0  0  0  0  0  0  0  0  0  0
    6.0499    0.8628   -0.6397 C   0  0  0  0  0  0  0  0  0  0  0  0
    4.9303    0.1328   -2.7281 C   0  0  0  0  0  0  0  0  0  0  0  0
   -5.9399   -1.2976   -0.6299 C   0  0  0  0  0  0  0  0  0  0  0  0
   -4.9431   -0.3797   -2.7127 C   0  0  0  0  0  0  0  0  0  0  0  0
    0.6453    2.9437    1.3692 C   0  0  0  0  0  0  0  0  0  0  0  0
   -0.7681   -2.6275    1.9346 C   0  0  0  0  0  0  0  0  0  0  0  0
    2.7369    0.0679   -1.3879 H   0  0  0  0  0  0  0  0  0  0  0  0
   -2.7249   -0.3537   -1.5225 H   0  0  0  0  0  0  0  0  0  0  0  0
    0.9893    0.0197    0.0006 H   0  0  0  0  0  0  0  0  0  0  0  0
   -0.8807   -0.0645   -0.0429 H   0  0  0  0  0  0  0  0  0  0  0  0
    0.9879   -0.9569    2.3210 H   0  0  0  0  0  0  0  0  0  0  0  0
    1.1335    0.6217    2.9981 H   0  0  0  0  0  0  0  0  0  0  0  0
   -1.1898   -0.0491    3.0061 H   0  0  0  0  0  0  0  0  0  0  0  0
   -1.0462    1.3792    2.0739 H   0  0  0  0  0  0  0  0  0  0  0  0
    2.4715   -1.8577    0.2353 H   0  0  0  0  0  0  0  0  0  0  0  0
    2.9151   -1.6420    1.9263 H   0  0  0  0  0  0  0  0  0  0  0  0
   -1.9946    1.9324   -0.0366 H   0  0  0  0  0  0  0  0  0  0  0  0
   -3.1112    2.0820    1.2973 H   0  0  0  0  0  0  0  0  0  0  0  0
    3.4880    2.3572   -2.0168 H   0  0  0  0  0  0  0  0  0  0  0  0
    3.8427    2.7105   -0.3373 H   0  0  0  0  0  0  0  0  0  0  0  0
   -3.4243   -2.7031   -1.6163 H   0  0  0  0  0  0  0  0  0  0  0  0
   -3.7886   -2.7043    0.1051 H   0  0  0  0  0  0  0  0  0  0  0  0
    1.1347    2.0204   -1.5825 H   0  0  0  0  0  0  0  0  0  0  0  0
    1.6455    3.5737   -0.9390 H   0  0  0  0  0  0  0  0  0  0  0  0
   -1.0565   -2.2699   -1.1889 H   0  0  0  0  0  0  0  0  0  0  0  0
   -1.5965   -3.6798   -0.2886 H   0  0  0  0  0  0  0  0  0  0  0  0
    3.6648    2.0204    1.7891 H   0  0  0  0  0  0  0  0  0  0  0  0
    3.3547    0.6502    2.8491 H   0  0  0  0  0  0  0  0  0  0  0  0
    4.7980    0.6829    1.8844 H   0  0  0  0  0  0  0  0  0  0  0  0
   -3.3923    0.1554    2.7195 H   0  0  0  0  0  0  0  0  0  0  0  0
   -4.7969    0.0611    1.6952 H   0  0  0  0  0  0  0  0  0  0  0  0
   -3.8317   -1.3896    1.9954 H   0  0  0  0  0  0  0  0  0  0  0  0
    4.6117   -2.8889    0.6937 H   0  0  0  0  0  0  0  0  0  0  0  0
    5.2984   -1.4047    1.3448 H   0  0  0  0  0  0  0  0  0  0  0  0
   -3.5851    2.1500   -1.6464 H   0  0  0  0  0  0  0  0  0  0  0  0
   -4.3810    3.0321   -0.3502 H   0  0  0  0  0  0  0  0  0  0  0  0
    5.9745    1.9300   -0.8692 H   0  0  0  0  0  0  0  0  0  0  0  0
    6.1883    0.7512    0.4355 H   0  0  0  0  0  0  0  0  0  0  0  0
    6.9822    0.5020   -1.0925 H   0  0  0  0  0  0  0  0  0  0  0  0
    4.8964    1.1598   -3.1035 H   0  0  0  0  0  0  0  0  0  0  0  0
    5.8652   -0.3050   -3.0987 H   0  0  0  0  0  0  0  0  0  0  0  0
    4.1100   -0.4281   -3.1907 H   0  0  0  0  0  0  0  0  0  0  0  0
   -5.9359   -1.3562    0.4610 H   0  0  0  0  0  0  0  0  0  0  0  0
   -6.9424   -0.9631   -0.9232 H   0  0  0  0  0  0  0  0  0  0  0  0
   -5.8247   -2.3134   -1.0230 H   0  0  0  0  0  0  0  0  0  0  0  0
   -4.7448   -1.3820   -3.1065 H   0  0  0  0  0  0  0  0  0  0  0  0
   -5.9394   -0.0767   -3.0564 H   0  0  0  0  0  0  0  0  0  0  0  0
   -4.2262    0.3096   -3.1729 H   0  0  0  0  0  0  0  0  0  0  0  0
    0.3547    2.7349    2.3895 H   0  0  0  0  0  0  0  0  0  0  0  0
    0.5369    3.9808    1.0641 H   0  0  0  0  0  0  0  0  0  0  0  0
   -0.5063   -2.2141    2.8989 H   0  0  0  0  0  0  0  0  0  0  0  0
   -0.6954   -3.7090    1.8601 H   0  0  0  0  0  0  0  0  0  0  0  0
  1 25  2  0  0  0  0
  2 26  2  0  0  0  0
  3  5  1  0  0  0  0
  3  7  1  0  0  0  0
  3 13  1  0  0  0  0
  3 21  1  0  0  0  0
  4  6  1  0  0  0  0
  4  8  1  0  0  0  0
  4 14  1  0  0  0  0
  4 22  1  0  0  0  0
  5  9  1  0  0  0  0
  5 15  1  0  0  0  0
  5 33  1  0  0  0  0
  6 10  1  0  0  0  0
  6 16  1  0  0  0  0
  6 34  1  0  0  0  0
  7 11  1  0  0  0  0
  7 17  1  0  0  0  0
  7 35  1  0  0  0  0
  8 12  1  0  0  0  0
  8 18  1  0  0  0  0
  8 36  1  0  0  0  0
  9 25  1  0  0  0  0
  9 27  1  0  0  0  0
  9 28  1  0  0  0  0
 10 26  1  0  0  0  0
 10 29  1  0  0  0  0
 10 30  1  0  0  0  0
 11 12  1  0  0  0  0
 11 37  1  0  0  0  0
 11 38  1  0  0  0  0
 12 39  1  0  0  0  0
 12 40  1  0  0  0  0
 13 23  1  0  0  0  0
 13 41  1  0  0  0  0
 13 42  1  0  0  0  0
 14 24  1  0  0  0  0
 14 43  1  0  0  0  0
 14 44  1  0  0  0  0
 15 19  1  0  0  0  0
 15 45  1  0  0  0  0
 15 46  1  0  0  0  0
 16 20  1  0  0  0  0
 16 47  1  0  0  0  0
 16 48  1  0  0  0  0
 17 19  1  0  0  0  0
 17 31  2  0  0  0  0
 18 20  1  0  0  0  0
 18 32  2  0  0  0  0
 19 49  1  0  0  0  0
 19 50  1  0  0  0  0
 20 51  1  0  0  0  0
 20 52  1  0  0  0  0
 21 53  1  0  0  0  0
 21 54  1  0  0  0  0
 21 55  1  0  0  0  0
 22 56  1  0  0  0  0
 22 57  1  0  0  0  0
 22 58  1  0  0  0  0
 23 25  1  0  0  0  0
 23 59  1  0  0  0  0
 23 60  1  0  0  0  0
 24 26  1  0  0  0  0
 24 61  1  0  0  0  0
 24 62  1  0  0  0  0
 27 63  1  0  0  0  0
 27 64  1  0  0  0  0
 27 65  1  0  0  0  0
 28 66  1  0  0  0  0
 28 67  1  0  0  0  0
 28 68  1  0  0  0  0
 29 69  1  0  0  0  0
 29 70  1  0  0  0  0
 29 71  1  0  0  0  0
 30 72  1  0  0  0  0
 30 73  1  0  0  0  0
 30 74  1  0  0  0  0
 31 75  1  0  0  0  0
 31 76  1  0  0  0  0
 32 77  1  0  0  0  0
 32 78  1  0  0  0  0
M  END
> <PUBCHEM_COMPOUND_CID>
12313728

> <PUBCHEM_CONFORMER_RMSD>
0.8

> <PUBCHEM_CONFORMER_DIVERSEORDER>
2
5
1
3
4

> <PUBCHEM_MMFF94_PARTIAL_CHARGES>
20
1 -0.57
10 0.06
17 -0.28
18 -0.28
19 0.14
2 -0.57
20 0.14
23 0.06
24 0.06
25 0.45
26 0.45
31 -0.3
32 -0.3
7 0.14
75 0.15
76 0.15
77 0.15
78 0.15
8 0.14
9 0.06

> <PUBCHEM_EFFECTIVE_ROTOR_COUNT>
5.4

> <PUBCHEM_PHARMACOPHORE_FEATURES>
8
1 1 acceptor
1 2 acceptor
3 10 29 30 hydrophobe
3 9 27 28 hydrophobe
6 3 5 7 15 17 19 rings
6 3 5 9 13 23 25 rings
6 4 6 10 14 24 26 rings
6 4 6 8 16 18 20 rings

> <PUBCHEM_HEAVY_ATOM_COUNT>
32

> <PUBCHEM_ATOM_DEF_STEREO_COUNT>
6

> <PUBCHEM_ATOM_UDEF_STEREO_COUNT>
0

> <PUBCHEM_BOND_DEF_STEREO_COUNT>
0

> <PUBCHEM_BOND_UDEF_STEREO_COUNT>
0

> <PUBCHEM_ISOTOPIC_ATOM_COUNT>
0

> <PUBCHEM_COMPONENT_COUNT>
1

> <PUBCHEM_CACTVS_TAUTO_COUNT>
3

> <PUBCHEM_CONFORMER_ID>
00BBE48000000002

> <PUBCHEM_MMFF94_ENERGY>
129.1057

> <PUBCHEM_FEATURE_SELFOVERLAP>
40.628

> <PUBCHEM_SHAPE_FINGERPRINT>
10165383 225 15213307369768565280
10190108 129 18115881853391879819
10319926 262 8574170361543665650
10369192 42 13334751145446571774
11135609 201 12469223323155548726
11796584 16 17418083313375884455
12166972 35 16845573161932433757
12363563 72 16343708754572220528
12422481 6 10087650298720106911
12596602 18 11025798695404985005
12788726 201 18269284473783393936
13224815 77 11024113156848455040
13544653 18 13470685962473869777
13690498 29 17901974120359013166
13782708 43 16343698842051497399
14251751 18 16200142231810585255
14840074 17 9727343658408046931
14848178 5 16272208582833142382
14950920 106 9438866940249028980
15001296 14 17604144943266780117
15183329 4 18409165502224377519
15510800 12 16988576658518284790
15575132 122 17241037713841961869
15927050 60 9003054680062650906
17349148 13 17203336623354718971
17809404 112 17845365729795267866
18608769 82 18042411411980222299
19315092 285 14979119034364054302
19319366 153 16443053994129359120
1979834 28 9727360176973593025
19958102 18 18272642481031377431
20465049 17 18260830380400622881
20775438 99 17409049910942590951
20775530 9 14185883246795004005
21069387 34 16988847197811569609
21458453 9 9222644709981581399
21781051 124 18337955697057825227
22122407 14 15647601243385013005
221357 26 18409727383100349913
22393880 68 18265616657558707654
23559900 14 18131342055143014041
23569914 2 14998784031190384831
2637199 183 18040710364348923265
2838139 119 15574710317974288060
3004659 81 18261955151011115322
340366 18 18411418431588354111
3459 110 10735890442987237158
3459 83 18338519625250296854
4058900 60 17678451962491601457
4098825 35 18337957908168773941
439807 62 16557888170304178591
44062 13 18130502033024151239
46194498 28 17679602274380604992
463206 1 17131826625047421183
469060 322 11023530355492920731
508706 21 18411138022180011327
513532 50 18341038701548959496
960060 61 18409732855057288814

> <PUBCHEM_SHAPE_MULTIPOLES>
646.81
14.31
2.86
2.23
1.01
0.03
-0.28
0.85
-8.91
-0.14
0.25
-0.45
0.16
0.28

> <PUBCHEM_SHAPE_SELFOVERLAP>
1355.755

> <PUBCHEM_SHAPE_VOLUME>
361.8

> <PUBCHEM_COORDINATE_TYPE>
2
5
10

$$$$
