101316831
  -OEChem-09082016073D

 82 86  0     1  0  0  0  0  0999 V2000
    3.4833   -3.0577   -1.1488 O   0  0  0  0  0  0  0  0  0  0  0  0
   -6.7149   -2.3959   -0.3524 O   0  0  0  0  0  0  0  0  0  0  0  0
    5.8129    1.0936   -0.7800 O   0  0  0  0  0  0  0  0  0  0  0  0
    6.3576   -0.6197    0.6213 O   0  0  0  0  0  0  0  0  0  0  0  0
    2.6101   -0.0399    0.7800 C   0  0  2  0  0  0  0  0  0  0  0  0
    1.1468    0.5787    0.7527 C   0  0  2  0  0  0  0  0  0  0  0  0
    3.1377   -0.0783   -0.7036 C   0  0  2  0  0  0  0  0  0  0  0  0
    0.9936    1.9514    0.0328 C   0  0  1  0  0  0  0  0  0  0  0  0
   -3.0254   -0.2985    0.4035 C   0  0  2  0  0  0  0  0  0  0  0  0
   -2.0243    0.6977    1.1590 C   0  0  1  0  0  0  0  0  0  0  0  0
   -4.2720    0.5106   -0.1137 C   0  0  2  0  0  0  0  0  0  0  0  0
    0.4216    0.5794    2.1155 C   0  0  0  0  0  0  0  0  0  0  0  0
    4.4836   -0.8497   -0.9028 C   0  0  1  0  0  0  0  0  0  0  0  0
    3.0742    1.3089   -1.3679 C   0  0  0  0  0  0  0  0  0  0  0  0
    1.6437    1.8544   -1.3719 C   0  0  0  0  0  0  0  0  0  0  0  0
    2.5308   -1.5199    1.2772 C   0  0  0  0  0  0  0  0  0  0  0  0
   -0.9476   -0.0660    1.9758 C   0  0  0  0  0  0  0  0  0  0  0  0
   -1.6534    1.8728    0.2509 C   0  0  0  0  0  0  0  0  0  0  0  0
   -5.4216   -0.3468   -0.7814 C   0  0  0  0  0  0  0  0  0  0  0  0
   -0.4669    2.3468   -0.1812 C   0  0  0  0  0  0  0  0  0  0  0  0
   -3.5228   -1.3949    1.4003 C   0  0  0  0  0  0  0  0  0  0  0  0
   -3.8611    1.7391   -0.9498 C   0  0  0  0  0  0  0  0  0  0  0  0
    4.3609   -2.2837   -0.3249 C   0  0  1  0  0  0  0  0  0  0  0  0
    3.5329    0.7416    1.7447 C   0  0  0  0  0  0  0  0  0  0  0  0
    3.8295   -2.3146    1.1067 C   0  0  0  0  0  0  0  0  0  0  0  0
   -2.8934    2.6386   -0.1902 C   0  0  0  0  0  0  0  0  0  0  0  0
   -5.4201   -1.8061   -0.2369 C   0  0  1  0  0  0  0  0  0  0  0  0
    1.6223    3.1563    0.7767 C   0  0  0  0  0  0  0  0  0  0  0  0
   -4.9643   -1.8688    1.2116 C   0  0  0  0  0  0  0  0  0  0  0  0
   -2.2575   -0.9737   -0.7650 C   0  0  0  0  0  0  0  0  0  0  0  0
    4.8597   -0.9448   -2.3986 C   0  0  0  0  0  0  0  0  0  0  0  0
   -6.7760    0.3460   -0.4602 C   0  0  0  0  0  0  0  0  0  0  0  0
   -5.3308   -0.4104   -2.3235 C   0  0  0  0  0  0  0  0  0  0  0  0
    5.6511   -0.1460   -0.2560 C   0  0  0  0  0  0  0  0  0  0  0  0
    0.5975   -0.1283    0.1102 H   0  0  0  0  0  0  0  0  0  0  0  0
    2.3976   -0.6772   -1.2605 H   0  0  0  0  0  0  0  0  0  0  0  0
   -2.6287    1.1741    1.9499 H   0  0  0  0  0  0  0  0  0  0  0  0
   -4.7184    0.9296    0.8037 H   0  0  0  0  0  0  0  0  0  0  0  0
    0.3111    1.5769    2.5479 H   0  0  0  0  0  0  0  0  0  0  0  0
    0.9753    0.0070    2.8647 H   0  0  0  0  0  0  0  0  0  0  0  0
    3.7162    2.0398   -0.8737 H   0  0  0  0  0  0  0  0  0  0  0  0
    3.3991    1.2575   -2.4117 H   0  0  0  0  0  0  0  0  0  0  0  0
    1.6479    2.8372   -1.8629 H   0  0  0  0  0  0  0  0  0  0  0  0
    1.0321    1.2039   -2.0139 H   0  0  0  0  0  0  0  0  0  0  0  0
    1.7324   -2.0440    0.7350 H   0  0  0  0  0  0  0  0  0  0  0  0
    2.2570   -1.5624    2.3370 H   0  0  0  0  0  0  0  0  0  0  0  0
   -0.8044   -1.0845    1.5996 H   0  0  0  0  0  0  0  0  0  0  0  0
   -1.3414   -0.2058    2.9926 H   0  0  0  0  0  0  0  0  0  0  0  0
   -0.5328    3.2305   -0.8230 H   0  0  0  0  0  0  0  0  0  0  0  0
   -3.4529   -1.0322    2.4333 H   0  0  0  0  0  0  0  0  0  0  0  0
   -2.8600   -2.2683    1.3477 H   0  0  0  0  0  0  0  0  0  0  0  0
   -4.7449    2.3331   -1.2085 H   0  0  0  0  0  0  0  0  0  0  0  0
   -3.4001    1.4335   -1.8959 H   0  0  0  0  0  0  0  0  0  0  0  0
    5.3343   -2.7897   -0.3525 H   0  0  0  0  0  0  0  0  0  0  0  0
    4.0108    1.6008    1.2742 H   0  0  0  0  0  0  0  0  0  0  0  0
    4.3443    0.1308    2.1459 H   0  0  0  0  0  0  0  0  0  0  0  0
    2.9870    1.1098    2.6189 H   0  0  0  0  0  0  0  0  0  0  0  0
    4.5881   -1.9579    1.8089 H   0  0  0  0  0  0  0  0  0  0  0  0
    3.6233   -3.3536    1.3945 H   0  0  0  0  0  0  0  0  0  0  0  0
   -3.3883    3.0556    0.6965 H   0  0  0  0  0  0  0  0  0  0  0  0
   -2.6472    3.4972   -0.8266 H   0  0  0  0  0  0  0  0  0  0  0  0
   -4.7590   -2.4367   -0.8397 H   0  0  0  0  0  0  0  0  0  0  0  0
    2.7069    3.1017    0.8487 H   0  0  0  0  0  0  0  0  0  0  0  0
    1.2288    3.2813    1.7895 H   0  0  0  0  0  0  0  0  0  0  0  0
    1.4141    4.0963    0.2478 H   0  0  0  0  0  0  0  0  0  0  0  0
   -5.0668   -2.8891    1.6020 H   0  0  0  0  0  0  0  0  0  0  0  0
   -5.6364   -1.2637    1.8339 H   0  0  0  0  0  0  0  0  0  0  0  0
   -1.9172   -0.2497   -1.5110 H   0  0  0  0  0  0  0  0  0  0  0  0
   -2.8568   -1.7181   -1.2895 H   0  0  0  0  0  0  0  0  0  0  0  0
   -1.3694   -1.5071   -0.4132 H   0  0  0  0  0  0  0  0  0  0  0  0
    5.1311    0.0163   -2.8471 H   0  0  0  0  0  0  0  0  0  0  0  0
    5.7264   -1.6028   -2.5393 H   0  0  0  0  0  0  0  0  0  0  0  0
    4.0348   -1.3551   -2.9920 H   0  0  0  0  0  0  0  0  0  0  0  0
   -6.9805    0.3431    0.6160 H   0  0  0  0  0  0  0  0  0  0  0  0
   -6.7824    1.3889   -0.7945 H   0  0  0  0  0  0  0  0  0  0  0  0
   -5.4796    0.5731   -2.7821 H   0  0  0  0  0  0  0  0  0  0  0  0
   -4.3642   -0.7925   -2.6619 H   0  0  0  0  0  0  0  0  0  0  0  0
   -6.1036   -1.0707   -2.7348 H   0  0  0  0  0  0  0  0  0  0  0  0
   -7.6157   -0.1506   -0.9595 H   0  0  0  0  0  0  0  0  0  0  0  0
    3.4682   -3.9629   -0.7940 H   0  0  0  0  0  0  0  0  0  0  0  0
   -6.6534   -3.3095   -0.0253 H   0  0  0  0  0  0  0  0  0  0  0  0
    6.5653    1.5698   -0.3687 H   0  0  0  0  0  0  0  0  0  0  0  0
  1 23  1  0  0  0  0
  1 80  1  0  0  0  0
  2 27  1  0  0  0  0
  2 81  1  0  0  0  0
  3 34  1  0  0  0  0
  3 82  1  0  0  0  0
  4 34  2  0  0  0  0
  5  6  1  0  0  0  0
  5  7  1  0  0  0  0
  5 16  1  0  0  0  0
  5 24  1  0  0  0  0
  6  8  1  0  0  0  0
  6 12  1  0  0  0  0
  6 35  1  0  0  0  0
  7 13  1  0  0  0  0
  7 14  1  0  0  0  0
  7 36  1  0  0  0  0
  8 15  1  0  0  0  0
  8 20  1  0  0  0  0
  8 28  1  0  0  0  0
  9 10  1  0  0  0  0
  9 11  1  0  0  0  0
  9 21  1  0  0  0  0
  9 30  1  0  0  0  0
 10 17  1  0  0  0  0
 10 18  1  0  0  0  0
 10 37  1  0  0  0  0
 11 19  1  0  0  0  0
 11 22  1  0  0  0  0
 11 38  1  0  0  0  0
 12 17  1  0  0  0  0
 12 39  1  0  0  0  0
 12 40  1  0  0  0  0
 13 23  1  0  0  0  0
 13 31  1  0  0  0  0
 13 34  1  0  0  0  0
 14 15  1  0  0  0  0
 14 41  1  0  0  0  0
 14 42  1  0  0  0  0
 15 43  1  0  0  0  0
 15 44  1  0  0  0  0
 16 25  1  0  0  0  0
 16 45  1  0  0  0  0
 16 46  1  0  0  0  0
 17 47  1  0  0  0  0
 17 48  1  0  0  0  0
 18 20  2  0  0  0  0
 18 26  1  0  0  0  0
 19 27  1  0  0  0  0
 19 32  1  0  0  0  0
 19 33  1  0  0  0  0
 20 49  1  0  0  0  0
 21 29  1  0  0  0  0
 21 50  1  0  0  0  0
 21 51  1  0  0  0  0
 22 26  1  0  0  0  0
 22 52  1  0  0  0  0
 22 53  1  0  0  0  0
 23 25  1  0  0  0  0
 23 54  1  0  0  0  0
 24 55  1  0  0  0  0
 24 56  1  0  0  0  0
 24 57  1  0  0  0  0
 25 58  1  0  0  0  0
 25 59  1  0  0  0  0
 26 60  1  0  0  0  0
 26 61  1  0  0  0  0
 27 29  1  0  0  0  0
 27 62  1  0  0  0  0
 28 63  1  0  0  0  0
 28 64  1  0  0  0  0
 28 65  1  0  0  0  0
 29 66  1  0  0  0  0
 29 67  1  0  0  0  0
 30 68  1  0  0  0  0
 30 69  1  0  0  0  0
 30 70  1  0  0  0  0
 31 71  1  0  0  0  0
 31 72  1  0  0  0  0
 31 73  1  0  0  0  0
 32 74  1  0  0  0  0
 32 75  1  0  0  0  0
 32 79  1  0  0  0  0
 33 76  1  0  0  0  0
 33 77  1  0  0  0  0
 33 78  1  0  0  0  0
M  END
> <PUBCHEM_COMPOUND_CID>
101316831

> <PUBCHEM_CONFORMER_RMSD>
0.8

> <PUBCHEM_CONFORMER_DIVERSEORDER>
1
2

> <PUBCHEM_MMFF94_PARTIAL_CHARGES>
17
1 -0.68
10 0.14
13 0.06
18 -0.28
2 -0.68
20 -0.29
23 0.28
26 0.14
27 0.28
3 -0.65
34 0.66
4 -0.57
49 0.15
8 0.14
80 0.4
81 0.4
82 0.5

> <PUBCHEM_EFFECTIVE_ROTOR_COUNT>
3.8

> <PUBCHEM_PHARMACOPHORE_FEATURES>
13
1 1 acceptor
1 1 donor
1 2 acceptor
1 2 donor
1 3 acceptor
1 4 acceptor
3 19 32 33 hydrophobe
3 3 4 34 anion
6 5 6 7 8 14 15 rings
6 5 7 13 16 23 25 rings
6 9 10 11 18 22 26 rings
6 9 11 19 21 27 29 rings
7 6 8 10 12 17 18 20 rings

> <PUBCHEM_HEAVY_ATOM_COUNT>
34

> <PUBCHEM_ATOM_DEF_STEREO_COUNT>
10

> <PUBCHEM_ATOM_UDEF_STEREO_COUNT>
0

> <PUBCHEM_BOND_DEF_STEREO_COUNT>
0

> <PUBCHEM_BOND_UDEF_STEREO_COUNT>
0

> <PUBCHEM_ISOTOPIC_ATOM_COUNT>
0

> <PUBCHEM_COMPONENT_COUNT>
1

> <PUBCHEM_CACTVS_TAUTO_COUNT>
1

> <PUBCHEM_CONFORMER_ID>
0609F8DF00000001

> <PUBCHEM_MMFF94_ENERGY>
160.2869

> <PUBCHEM_FEATURE_SELFOVERLAP>
66.068

> <PUBCHEM_SHAPE_FINGERPRINT>
10 15 11743835884900067995
10319926 262 10663818598221479793
10622 236 17680977505587218658
10928967 22 17917710193093918103
11796584 16 18129101130223542644
11991303 11 17127632877340852897
12166972 35 17703789245200555937
12422481 6 12319740236969701713
12633257 1 15554438622071960693
13782708 43 17989485203889639462
14347332 77 18408603652394714981
14790565 3 17399515624369250865
14840074 17 17704073988694995055
14950920 106 14836114481780569479
15082195 135 17822588182795667284
15183329 4 18113612387870477933
15238133 3 8502365642606850242
15361156 5 18335423500055781021
15510800 12 17916027858952366766
17349148 13 17275105041961372949
17909252 39 18410295838822128088
1813 80 16343714235009064816
18608769 82 16805898385205039643
19319366 153 17895187784089319962
19958102 18 17895189961658265687
20511986 3 17095233753114772672
20775438 99 17976526527628588019
21033650 10 17314521318252084300
21703447 108 18201714102293596825
21756936 100 8213554685660766002
22122407 14 10809335616942859903
22393880 68 17530959215891158865
23559900 14 18115304604732517945
25222932 49 18343858927241249486
2838139 119 13695584468575773943
3004659 81 18040711498125596905
329604 57 18334298660625948270
339767 52 18335419054358369710
392239 28 14836114425545198156
4098825 35 17676205784220544013
437795 51 17560513015310836808
439807 62 18260831527458077579
44062 13 18339360760884541117
46194498 28 17750527336744562447
463206 1 18339365295911316603
513532 50 18114172090686536936
6608658 132 15358241729232003487
6669772 16 17983576596565812776
6823239 73 18410565202101944448
86090 222 16988295187356760038

> <PUBCHEM_SHAPE_MULTIPOLES>
676.23
15.51
2.93
1.87
7.1
0.26
0.14
-8.27
5.31
-0.16
0.04
-0.56
-0.27
0.51

> <PUBCHEM_SHAPE_SELFOVERLAP>
1435.281

> <PUBCHEM_SHAPE_VOLUME>
365.2

> <PUBCHEM_COORDINATE_TYPE>
2
5
10

$$$$
