16080347
  -OEChem-09082016153D

 83 87  0     1  0  0  0  0  0999 V2000
    1.0366   -3.4915    1.1016 O   0  0  0  0  0  0  0  0  0  0  0  0
   -3.3492    3.1983    0.5529 O   0  0  0  0  0  0  0  0  0  0  0  0
   -6.9108    1.2038   -0.1900 O   0  0  0  0  0  0  0  0  0  0  0  0
    6.3082   -0.2286    0.6471 O   0  0  0  0  0  0  0  0  0  0  0  0
    2.8331    1.5916   -2.5546 O   0  0  0  0  0  0  0  0  0  0  0  0
   -2.6531   -0.4593    0.7635 C   0  0  2  0  0  0  0  0  0  0  0  0
   -1.2225   -1.0506    0.3278 C   0  0  2  0  0  0  0  0  0  0  0  0
   -3.2542    0.2770   -0.4951 C   0  0  2  0  0  0  0  0  0  0  0  0
   -1.2462   -1.9712   -0.9529 C   0  0  1  0  0  0  0  0  0  0  0  0
   -4.5224    1.1752   -0.2415 C   0  0  2  0  0  0  0  0  0  0  0  0
   -2.0208   -1.2472   -2.0885 C   0  0  0  0  0  0  0  0  0  0  0  0
   -3.3832   -0.6847   -1.6902 C   0  0  0  0  0  0  0  0  0  0  0  0
   -0.4033   -1.6203    1.5190 C   0  0  0  0  0  0  0  0  0  0  0  0
    1.9381   -1.3998    0.2022 C   0  0  1  0  0  0  0  0  0  0  0  0
   -2.4533    0.6053    1.8881 C   0  0  0  0  0  0  0  0  0  0  0  0
    2.7108   -0.0768    0.6461 C   0  0  2  0  0  0  0  0  0  0  0  0
    0.1913   -2.2703   -1.5064 C   0  0  0  0  0  0  0  0  0  0  0  0
    1.0557   -2.0681    1.3035 C   0  0  2  0  0  0  0  0  0  0  0  0
   -4.2471    2.1528    0.9387 C   0  0  1  0  0  0  0  0  0  0  0  0
    1.2511   -1.2538   -1.1535 C   0  0  0  0  0  0  0  0  0  0  0  0
    3.5930    0.3621   -0.5798 C   0  0  2  0  0  0  0  0  0  0  0  0
   -3.6834    1.4702    2.1811 C   0  0  0  0  0  0  0  0  0  0  0  0
   -3.5747   -1.5666    1.3316 C   0  0  0  0  0  0  0  0  0  0  0  0
   -1.9039   -3.3499   -0.7176 C   0  0  0  0  0  0  0  0  0  0  0  0
    4.7357    1.4106   -0.3167 C   0  0  0  0  0  0  0  0  0  0  0  0
    3.6364   -0.4036    1.8508 C   0  0  0  0  0  0  0  0  0  0  0  0
   -5.8024    0.3645    0.0484 C   0  0  0  0  0  0  0  0  0  0  0  0
   -4.8273    2.0244   -1.5062 C   0  0  0  0  0  0  0  0  0  0  0  0
    5.5634    0.9611    0.9258 C   0  0  1  0  0  0  0  0  0  0  0  0
    1.7137    1.0212    1.0787 C   0  0  0  0  0  0  0  0  0  0  0  0
    1.5830   -0.3066   -2.0448 C   0  0  0  0  0  0  0  0  0  0  0  0
    4.6920    0.6625    2.1436 C   0  0  0  0  0  0  0  0  0  0  0  0
    2.6798    0.6546   -1.7760 C   0  0  0  0  0  0  0  0  0  0  0  0
    4.2493    2.8591   -0.0908 C   0  0  0  0  0  0  0  0  0  0  0  0
    5.6867    1.4547   -1.5461 C   0  0  0  0  0  0  0  0  0  0  0  0
   -0.6791   -0.1470    0.0232 H   0  0  0  0  0  0  0  0  0  0  0  0
   -2.4775    0.9998   -0.7964 H   0  0  0  0  0  0  0  0  0  0  0  0
   -2.1598   -1.9252   -2.9411 H   0  0  0  0  0  0  0  0  0  0  0  0
   -1.4157   -0.4122   -2.4658 H   0  0  0  0  0  0  0  0  0  0  0  0
   -3.7784   -0.1588   -2.5653 H   0  0  0  0  0  0  0  0  0  0  0  0
   -4.0844   -1.4983   -1.4899 H   0  0  0  0  0  0  0  0  0  0  0  0
   -0.3601   -0.8509    2.2948 H   0  0  0  0  0  0  0  0  0  0  0  0
   -0.9548   -2.4496    1.9732 H   0  0  0  0  0  0  0  0  0  0  0  0
    2.7274   -2.1443    0.0029 H   0  0  0  0  0  0  0  0  0  0  0  0
   -1.6253    1.2724    1.6144 H   0  0  0  0  0  0  0  0  0  0  0  0
   -2.1653    0.1196    2.8280 H   0  0  0  0  0  0  0  0  0  0  0  0
    0.1401   -2.3764   -2.6004 H   0  0  0  0  0  0  0  0  0  0  0  0
    0.5413   -3.2597   -1.1907 H   0  0  0  0  0  0  0  0  0  0  0  0
    1.5632   -1.9639    2.2668 H   0  0  0  0  0  0  0  0  0  0  0  0
   -5.1809    2.6576    1.2166 H   0  0  0  0  0  0  0  0  0  0  0  0
    4.1348   -0.5460   -0.8955 H   0  0  0  0  0  0  0  0  0  0  0  0
   -4.4609    0.8702    2.6637 H   0  0  0  0  0  0  0  0  0  0  0  0
   -3.3907    2.2301    2.9170 H   0  0  0  0  0  0  0  0  0  0  0  0
   -4.1575   -2.0755    0.5641 H   0  0  0  0  0  0  0  0  0  0  0  0
   -3.0220   -2.3278    1.8859 H   0  0  0  0  0  0  0  0  0  0  0  0
   -4.3066   -1.1763    2.0426 H   0  0  0  0  0  0  0  0  0  0  0  0
   -2.9842   -3.3003   -0.5918 H   0  0  0  0  0  0  0  0  0  0  0  0
   -1.7382   -4.0077   -1.5803 H   0  0  0  0  0  0  0  0  0  0  0  0
   -1.4854   -3.8570    0.1563 H   0  0  0  0  0  0  0  0  0  0  0  0
    4.1476   -1.3585    1.6715 H   0  0  0  0  0  0  0  0  0  0  0  0
    3.0465   -0.5410    2.7645 H   0  0  0  0  0  0  0  0  0  0  0  0
   -5.8608    0.0089    1.0780 H   0  0  0  0  0  0  0  0  0  0  0  0
   -5.8969   -0.4949   -0.6205 H   0  0  0  0  0  0  0  0  0  0  0  0
   -5.5027    2.8608   -1.2896 H   0  0  0  0  0  0  0  0  0  0  0  0
   -3.9107    2.4632   -1.9178 H   0  0  0  0  0  0  0  0  0  0  0  0
   -5.2862    1.4277   -2.3024 H   0  0  0  0  0  0  0  0  0  0  0  0
    6.2948    1.7371    1.1835 H   0  0  0  0  0  0  0  0  0  0  0  0
    1.0464    1.3295    0.2699 H   0  0  0  0  0  0  0  0  0  0  0  0
    1.0939    0.6861    1.9133 H   0  0  0  0  0  0  0  0  0  0  0  0
    2.2073    1.9204    1.4425 H   0  0  0  0  0  0  0  0  0  0  0  0
    1.0780   -0.2174   -3.0008 H   0  0  0  0  0  0  0  0  0  0  0  0
    4.2158    1.5754    2.5141 H   0  0  0  0  0  0  0  0  0  0  0  0
    5.3231    0.2938    2.9624 H   0  0  0  0  0  0  0  0  0  0  0  0
    0.6473   -3.9004    1.8934 H   0  0  0  0  0  0  0  0  0  0  0  0
    3.5360    3.1858   -0.8514 H   0  0  0  0  0  0  0  0  0  0  0  0
    3.7902    3.0157    0.8846 H   0  0  0  0  0  0  0  0  0  0  0  0
    5.0960    3.5560   -0.1312 H   0  0  0  0  0  0  0  0  0  0  0  0
    6.5980    2.0181   -1.3121 H   0  0  0  0  0  0  0  0  0  0  0  0
    5.9946    0.4503   -1.8569 H   0  0  0  0  0  0  0  0  0  0  0  0
    5.2273    1.9428   -2.4104 H   0  0  0  0  0  0  0  0  0  0  0  0
   -3.2700    3.8119    1.3029 H   0  0  0  0  0  0  0  0  0  0  0  0
   -7.7121    0.6822   -0.0134 H   0  0  0  0  0  0  0  0  0  0  0  0
    6.8568   -0.4228    1.4261 H   0  0  0  0  0  0  0  0  0  0  0  0
  1 18  1  0  0  0  0
  1 74  1  0  0  0  0
  2 19  1  0  0  0  0
  2 81  1  0  0  0  0
  3 27  1  0  0  0  0
  3 82  1  0  0  0  0
  4 29  1  0  0  0  0
  4 83  1  0  0  0  0
  5 33  2  0  0  0  0
  6  7  1  0  0  0  0
  6  8  1  0  0  0  0
  6 15  1  0  0  0  0
  6 23  1  0  0  0  0
  7  9  1  0  0  0  0
  7 13  1  0  0  0  0
  7 36  1  0  0  0  0
  8 10  1  0  0  0  0
  8 12  1  0  0  0  0
  8 37  1  0  0  0  0
  9 11  1  0  0  0  0
  9 17  1  0  0  0  0
  9 24  1  0  0  0  0
 10 19  1  0  0  0  0
 10 27  1  0  0  0  0
 10 28  1  0  0  0  0
 11 12  1  0  0  0  0
 11 38  1  0  0  0  0
 11 39  1  0  0  0  0
 12 40  1  0  0  0  0
 12 41  1  0  0  0  0
 13 18  1  0  0  0  0
 13 42  1  0  0  0  0
 13 43  1  0  0  0  0
 14 16  1  0  0  0  0
 14 18  1  0  0  0  0
 14 20  1  0  0  0  0
 14 44  1  0  0  0  0
 15 22  1  0  0  0  0
 15 45  1  0  0  0  0
 15 46  1  0  0  0  0
 16 21  1  0  0  0  0
 16 26  1  0  0  0  0
 16 30  1  0  0  0  0
 17 20  1  0  0  0  0
 17 47  1  0  0  0  0
 17 48  1  0  0  0  0
 18 49  1  0  0  0  0
 19 22  1  0  0  0  0
 19 50  1  0  0  0  0
 20 31  2  0  0  0  0
 21 25  1  0  0  0  0
 21 33  1  0  0  0  0
 21 51  1  0  0  0  0
 22 52  1  0  0  0  0
 22 53  1  0  0  0  0
 23 54  1  0  0  0  0
 23 55  1  0  0  0  0
 23 56  1  0  0  0  0
 24 57  1  0  0  0  0
 24 58  1  0  0  0  0
 24 59  1  0  0  0  0
 25 29  1  0  0  0  0
 25 34  1  0  0  0  0
 25 35  1  0  0  0  0
 26 32  1  0  0  0  0
 26 60  1  0  0  0  0
 26 61  1  0  0  0  0
 27 62  1  0  0  0  0
 27 63  1  0  0  0  0
 28 64  1  0  0  0  0
 28 65  1  0  0  0  0
 28 66  1  0  0  0  0
 29 32  1  0  0  0  0
 29 67  1  0  0  0  0
 30 68  1  0  0  0  0
 30 69  1  0  0  0  0
 30 70  1  0  0  0  0
 31 33  1  0  0  0  0
 31 71  1  0  0  0  0
 32 72  1  0  0  0  0
 32 73  1  0  0  0  0
 34 75  1  0  0  0  0
 34 76  1  0  0  0  0
 34 77  1  0  0  0  0
 35 78  1  0  0  0  0
 35 79  1  0  0  0  0
 35 80  1  0  0  0  0
M  END
> <PUBCHEM_COMPOUND_CID>
16080347

> <PUBCHEM_CONFORMER_RMSD>
0.8

> <PUBCHEM_CONFORMER_DIVERSEORDER>
1
2

> <PUBCHEM_MMFF94_PARTIAL_CHARGES>
20
1 -0.68
14 0.14
17 0.14
18 0.28
19 0.28
2 -0.68
20 -0.28
21 0.06
27 0.28
29 0.28
3 -0.68
31 -0.14
33 0.49
4 -0.68
5 -0.57
71 0.15
74 0.4
81 0.4
82 0.4
83 0.4

> <PUBCHEM_EFFECTIVE_ROTOR_COUNT>
3.6

> <PUBCHEM_PHARMACOPHORE_FEATURES>
15
1 1 acceptor
1 1 donor
1 2 acceptor
1 2 donor
1 3 acceptor
1 3 donor
1 4 acceptor
1 4 donor
1 5 acceptor
3 25 34 35 hydrophobe
6 14 16 20 21 31 33 rings
6 16 21 25 26 29 32 rings
6 6 7 8 9 11 12 rings
6 6 8 10 15 19 22 rings
7 7 9 13 14 17 18 20 rings

> <PUBCHEM_HEAVY_ATOM_COUNT>
35

> <PUBCHEM_ATOM_DEF_STEREO_COUNT>
11

> <PUBCHEM_ATOM_UDEF_STEREO_COUNT>
0

> <PUBCHEM_BOND_DEF_STEREO_COUNT>
0

> <PUBCHEM_BOND_UDEF_STEREO_COUNT>
0

> <PUBCHEM_ISOTOPIC_ATOM_COUNT>
0

> <PUBCHEM_COMPONENT_COUNT>
1

> <PUBCHEM_CACTVS_TAUTO_COUNT>
8

> <PUBCHEM_CONFORMER_ID>
00F55DDB00000001

> <PUBCHEM_MMFF94_ENERGY>
170.0329

> <PUBCHEM_FEATURE_SELFOVERLAP>
76.17

> <PUBCHEM_SHAPE_FINGERPRINT>
10498660 4 17561079215805128379
10670039 82 18131081406895686248
10928967 22 8934712267296298885
11370993 144 16153418424652643016
11456790 92 13407369405227847253
11552529 35 16807302542546476658
11640471 11 18341040848515934759
11720765 8 16125576454175839236
11763715 3 17329716929905030526
11961588 58 17346590885315329927
1200032 147 17629786499266080641
12107698 1 17985540293581784967
12422481 6 17385997339474219116
12633257 1 15357703002145011599
12788726 201 18047473619017118659
13103583 49 13912609342110068837
13224815 77 18341058432396432897
13383661 66 11665800340621381317
13583140 156 18187649140986667793
14251757 17 16271936990555190924
14251764 30 10735576030529144349
14294032 229 18339088198070867515
14347329 18 18130797788930579372
14840074 17 18187088368466316004
14950920 106 16660652876878501849
15163728 17 18201723946331725894
15183329 4 17131838659909254606
15274700 34 15792887532294462569
15324884 4 15264208328922823631
18608769 82 17775002444884994839
20511986 3 18114169874098452432
20739085 24 17603865573050267358
20764821 26 18338797926310414805
20775438 99 12173323779758271661
21033648 29 18261945371249120712
21756936 100 18189339142351918678
22122407 14 17822301205259500765
22393880 68 16845576430893052894
23559900 14 17971764272528570231
23569943 247 17388785671199078818
238 59 14908169859330639590
2838139 119 18130781248631545792
3459 110 15864356899267141145
3737641 26 12396562002428459528
392239 28 13407075967812089844
4015057 19 14979674437970167970
4098825 35 14836134225745183681
439807 62 12751235909243618765
44802255 64 16985751107362154484
46194498 28 15338829889259916768
469060 322 18198918092001324971
474 4 18335419049699581178
5081480 168 18118687613143485062
508706 21 17775293784800255872
6086070 43 17203320144356566610
6669772 16 11814737901435366530
9849439 229 18271248192955398865
9981440 41 18202001044784780223

> <PUBCHEM_SHAPE_MULTIPOLES>
690.94
13.21
3.1
2.3
1.4
0.7
0.25
-10.13
-0.18
-1.58
-0.03
0.73
-0.03
-0.99

> <PUBCHEM_SHAPE_SELFOVERLAP>
1463.573

> <PUBCHEM_SHAPE_VOLUME>
378.7

> <PUBCHEM_COORDINATE_TYPE>
2
5
10

$$$$
