91895419
  -OEChem-09082016093D

 83 87  0     1  0  0  0  0  0999 V2000
   -5.3496   -2.9695   -0.1674 O   0  0  0  0  0  0  0  0  0  0  0  0
    6.5142    0.0520   -0.5905 O   0  0  0  0  0  0  0  0  0  0  0  0
   -6.8810   -0.7541    0.4320 O   0  0  0  0  0  0  0  0  0  0  0  0
   -2.4364    0.1504   -0.8305 C   0  0  2  0  0  0  0  0  0  0  0  0
   -1.0234    0.8838   -0.6353 C   0  0  2  0  0  0  0  0  0  0  0  0
   -1.0476    2.2311    0.1830 C   0  0  1  0  0  0  0  0  0  0  0  0
   -3.1462    0.0375    0.5631 C   0  0  2  0  0  0  0  0  0  0  0  0
   -4.4976   -0.7842    0.5844 C   0  0  2  0  0  0  0  0  0  0  0  0
    2.9159   -0.1278   -0.5739 C   0  0  2  0  0  0  0  0  0  0  0  0
    2.1293    1.2541   -0.6303 C   0  0  1  0  0  0  0  0  0  0  0  0
   -1.8637    2.0159    1.4839 C   0  0  0  0  0  0  0  0  0  0  0  0
   -3.2418    1.3987    1.2726 C   0  0  0  0  0  0  0  0  0  0  0  0
   -0.1905    0.9544   -1.9432 C   0  0  0  0  0  0  0  0  0  0  0  0
   -2.1691   -1.3051   -1.3558 C   0  0  0  0  0  0  0  0  0  0  0  0
    0.3898    2.6986    0.6185 C   0  0  0  0  0  0  0  0  0  0  0  0
    3.7764   -0.0901    0.7490 C   0  0  2  0  0  0  0  0  0  0  0  0
    1.2427    1.5038   -1.8788 C   0  0  0  0  0  0  0  0  0  0  0  0
    1.4397    1.6154    0.6791 C   0  0  0  0  0  0  0  0  0  0  0  0
   -4.5077   -1.8746   -0.5292 C   0  0  1  0  0  0  0  0  0  0  0  0
   -3.1097   -2.3916   -0.8302 C   0  0  0  0  0  0  0  0  0  0  0  0
   -3.3172    0.8727   -1.8779 C   0  0  0  0  0  0  0  0  0  0  0  0
    4.9426   -1.1415    0.8857 C   0  0  0  0  0  0  0  0  0  0  0  0
   -1.6541    3.4206   -0.5954 C   0  0  0  0  0  0  0  0  0  0  0  0
    3.8599   -0.2358   -1.8009 C   0  0  0  0  0  0  0  0  0  0  0  0
    2.8622    0.0101    1.9917 C   0  0  0  0  0  0  0  0  0  0  0  0
    1.7779    1.0369    1.8442 C   0  0  0  0  0  0  0  0  0  0  0  0
    5.7788   -1.1644   -0.4271 C   0  0  1  0  0  0  0  0  0  0  0  0
   -5.7560    0.0947    0.4054 C   0  0  0  0  0  0  0  0  0  0  0  0
   -4.6286   -1.4479    1.9845 C   0  0  0  0  0  0  0  0  0  0  0  0
    4.9168   -1.3339   -1.6771 C   0  0  0  0  0  0  0  0  0  0  0  0
    1.9285   -1.3133   -0.6139 C   0  0  0  0  0  0  0  0  0  0  0  0
    4.4806   -2.5768    1.2170 C   0  0  0  0  0  0  0  0  0  0  0  0
    5.8649   -0.7198    2.0634 C   0  0  0  0  0  0  0  0  0  0  0  0
   -0.4877    0.1770    0.0112 H   0  0  0  0  0  0  0  0  0  0  0  0
   -2.4445   -0.5511    1.1775 H   0  0  0  0  0  0  0  0  0  0  0  0
    2.9163    2.0214   -0.7263 H   0  0  0  0  0  0  0  0  0  0  0  0
   -1.9870    2.9700    2.0131 H   0  0  0  0  0  0  0  0  0  0  0  0
   -1.3013    1.3636    2.1652 H   0  0  0  0  0  0  0  0  0  0  0  0
   -3.8837    2.0924    0.7218 H   0  0  0  0  0  0  0  0  0  0  0  0
   -3.7017    1.2773    2.2598 H   0  0  0  0  0  0  0  0  0  0  0  0
   -0.7182    1.5639   -2.6847 H   0  0  0  0  0  0  0  0  0  0  0  0
   -0.1377   -0.0404   -2.3950 H   0  0  0  0  0  0  0  0  0  0  0  0
   -2.2025   -1.3108   -2.4534 H   0  0  0  0  0  0  0  0  0  0  0  0
   -1.1548   -1.6305   -1.0945 H   0  0  0  0  0  0  0  0  0  0  0  0
    0.3294    3.2041    1.5933 H   0  0  0  0  0  0  0  0  0  0  0  0
    0.7613    3.4891   -0.0474 H   0  0  0  0  0  0  0  0  0  0  0  0
    4.3030    0.8790    0.7063 H   0  0  0  0  0  0  0  0  0  0  0  0
    1.7701    1.1763   -2.7820 H   0  0  0  0  0  0  0  0  0  0  0  0
    1.1689    2.5922   -2.0159 H   0  0  0  0  0  0  0  0  0  0  0  0
   -4.9369   -1.4748   -1.4529 H   0  0  0  0  0  0  0  0  0  0  0  0
   -3.1538   -3.2162   -1.5528 H   0  0  0  0  0  0  0  0  0  0  0  0
   -2.6843   -2.8395    0.0776 H   0  0  0  0  0  0  0  0  0  0  0  0
   -3.7963    1.7688   -1.4860 H   0  0  0  0  0  0  0  0  0  0  0  0
   -4.1265    0.2400   -2.2478 H   0  0  0  0  0  0  0  0  0  0  0  0
   -2.7539    1.1586   -2.7691 H   0  0  0  0  0  0  0  0  0  0  0  0
   -2.7223    3.3221   -0.7782 H   0  0  0  0  0  0  0  0  0  0  0  0
   -1.5332    4.3524   -0.0285 H   0  0  0  0  0  0  0  0  0  0  0  0
   -1.1599    3.5674   -1.5606 H   0  0  0  0  0  0  0  0  0  0  0  0
    4.3709    0.7230   -1.9582 H   0  0  0  0  0  0  0  0  0  0  0  0
    3.2827   -0.4237   -2.7141 H   0  0  0  0  0  0  0  0  0  0  0  0
    3.4591    0.2914    2.8659 H   0  0  0  0  0  0  0  0  0  0  0  0
    2.3914   -0.9507    2.2218 H   0  0  0  0  0  0  0  0  0  0  0  0
    1.2582    1.3207    2.7558 H   0  0  0  0  0  0  0  0  0  0  0  0
    6.5173   -1.9742   -0.3817 H   0  0  0  0  0  0  0  0  0  0  0  0
   -5.7492    0.6323   -0.5461 H   0  0  0  0  0  0  0  0  0  0  0  0
   -5.8653    0.8234    1.2147 H   0  0  0  0  0  0  0  0  0  0  0  0
   -5.5517   -2.0259    2.1004 H   0  0  0  0  0  0  0  0  0  0  0  0
   -4.6246   -0.7004    2.7847 H   0  0  0  0  0  0  0  0  0  0  0  0
   -3.7950   -2.1338    2.1732 H   0  0  0  0  0  0  0  0  0  0  0  0
    4.4437   -2.3207   -1.6895 H   0  0  0  0  0  0  0  0  0  0  0  0
    5.5548   -1.2878   -2.5689 H   0  0  0  0  0  0  0  0  0  0  0  0
    1.2109   -1.2962    0.2095 H   0  0  0  0  0  0  0  0  0  0  0  0
    2.4257   -2.2804   -0.5818 H   0  0  0  0  0  0  0  0  0  0  0  0
    1.3627   -1.3214   -1.5484 H   0  0  0  0  0  0  0  0  0  0  0  0
    5.3462   -3.2132    1.4417 H   0  0  0  0  0  0  0  0  0  0  0  0
    5.3741   -0.8552    3.0330 H   0  0  0  0  0  0  0  0  0  0  0  0
    6.1675    0.3302    1.9864 H   0  0  0  0  0  0  0  0  0  0  0  0
    3.8334   -2.6080    2.0982 H   0  0  0  0  0  0  0  0  0  0  0  0
    3.9612   -3.0679    0.3960 H   0  0  0  0  0  0  0  0  0  0  0  0
    6.7794   -1.3246    2.0789 H   0  0  0  0  0  0  0  0  0  0  0  0
   -5.3392   -3.6056   -0.9028 H   0  0  0  0  0  0  0  0  0  0  0  0
    7.0676   -0.0419   -1.3845 H   0  0  0  0  0  0  0  0  0  0  0  0
   -7.6682   -0.1949    0.3183 H   0  0  0  0  0  0  0  0  0  0  0  0
  1 19  1  0  0  0  0
  1 81  1  0  0  0  0
  2 27  1  0  0  0  0
  2 82  1  0  0  0  0
  3 28  1  0  0  0  0
  3 83  1  0  0  0  0
  4  5  1  0  0  0  0
  4  7  1  0  0  0  0
  4 14  1  0  0  0  0
  4 21  1  0  0  0  0
  5  6  1  0  0  0  0
  5 13  1  0  0  0  0
  5 34  1  0  0  0  0
  6 11  1  0  0  0  0
  6 15  1  0  0  0  0
  6 23  1  0  0  0  0
  7  8  1  0  0  0  0
  7 12  1  0  0  0  0
  7 35  1  0  0  0  0
  8 19  1  0  0  0  0
  8 28  1  0  0  0  0
  8 29  1  0  0  0  0
  9 10  1  0  0  0  0
  9 16  1  0  0  0  0
  9 24  1  0  0  0  0
  9 31  1  0  0  0  0
 10 17  1  0  0  0  0
 10 18  1  0  0  0  0
 10 36  1  0  0  0  0
 11 12  1  0  0  0  0
 11 37  1  0  0  0  0
 11 38  1  0  0  0  0
 12 39  1  0  0  0  0
 12 40  1  0  0  0  0
 13 17  1  0  0  0  0
 13 41  1  0  0  0  0
 13 42  1  0  0  0  0
 14 20  1  0  0  0  0
 14 43  1  0  0  0  0
 14 44  1  0  0  0  0
 15 18  1  0  0  0  0
 15 45  1  0  0  0  0
 15 46  1  0  0  0  0
 16 22  1  0  0  0  0
 16 25  1  0  0  0  0
 16 47  1  0  0  0  0
 17 48  1  0  0  0  0
 17 49  1  0  0  0  0
 18 26  2  0  0  0  0
 19 20  1  0  0  0  0
 19 50  1  0  0  0  0
 20 51  1  0  0  0  0
 20 52  1  0  0  0  0
 21 53  1  0  0  0  0
 21 54  1  0  0  0  0
 21 55  1  0  0  0  0
 22 27  1  0  0  0  0
 22 32  1  0  0  0  0
 22 33  1  0  0  0  0
 23 56  1  0  0  0  0
 23 57  1  0  0  0  0
 23 58  1  0  0  0  0
 24 30  1  0  0  0  0
 24 59  1  0  0  0  0
 24 60  1  0  0  0  0
 25 26  1  0  0  0  0
 25 61  1  0  0  0  0
 25 62  1  0  0  0  0
 26 63  1  0  0  0  0
 27 30  1  0  0  0  0
 27 64  1  0  0  0  0
 28 65  1  0  0  0  0
 28 66  1  0  0  0  0
 29 67  1  0  0  0  0
 29 68  1  0  0  0  0
 29 69  1  0  0  0  0
 30 70  1  0  0  0  0
 30 71  1  0  0  0  0
 31 72  1  0  0  0  0
 31 73  1  0  0  0  0
 31 74  1  0  0  0  0
 32 75  1  0  0  0  0
 32 78  1  0  0  0  0
 32 79  1  0  0  0  0
 33 76  1  0  0  0  0
 33 77  1  0  0  0  0
 33 80  1  0  0  0  0
M  END
> <PUBCHEM_COMPOUND_CID>
91895419

> <PUBCHEM_CONFORMER_RMSD>
0.8

> <PUBCHEM_CONFORMER_DIVERSEORDER>
1
2

> <PUBCHEM_MMFF94_PARTIAL_CHARGES>
15
1 -0.68
10 0.14
15 0.14
18 -0.28
19 0.28
2 -0.68
25 0.14
26 -0.29
27 0.28
28 0.28
3 -0.68
63 0.15
81 0.4
82 0.4
83 0.4

> <PUBCHEM_EFFECTIVE_ROTOR_COUNT>
3.8

> <PUBCHEM_PHARMACOPHORE_FEATURES>
12
1 1 acceptor
1 1 donor
1 2 acceptor
1 2 donor
1 3 acceptor
1 3 donor
3 22 32 33 hydrophobe
6 4 5 6 7 11 12 rings
6 4 7 8 14 19 20 rings
6 9 10 16 18 25 26 rings
6 9 16 22 24 27 30 rings
7 5 6 10 13 15 17 18 rings

> <PUBCHEM_HEAVY_ATOM_COUNT>
33

> <PUBCHEM_ATOM_DEF_STEREO_COUNT>
10

> <PUBCHEM_ATOM_UDEF_STEREO_COUNT>
0

> <PUBCHEM_BOND_DEF_STEREO_COUNT>
0

> <PUBCHEM_BOND_UDEF_STEREO_COUNT>
0

> <PUBCHEM_ISOTOPIC_ATOM_COUNT>
0

> <PUBCHEM_COMPONENT_COUNT>
1

> <PUBCHEM_CACTVS_TAUTO_COUNT>
1

> <PUBCHEM_CONFORMER_ID>
057A367B00000001

> <PUBCHEM_MMFF94_ENERGY>
159.9479

> <PUBCHEM_FEATURE_SELFOVERLAP>
60.954

> <PUBCHEM_SHAPE_FINGERPRINT>
10319926 262 17704082793514912787
10622 236 17532918425273969450
10928967 22 18335976553666769323
11135609 12 18343016705333953720
11370993 144 16271652191542760086
11456790 92 17774177798822665251
117089 54 18193567880884125027
11763715 3 18115045034099794692
11961588 58 11818996309162393752
11991303 11 17607233278456556493
1200032 147 8213324986319844759
12128747 34 15984280503617426698
12166972 35 18113900489311787725
12422481 6 17060345114935403669
12553582 1 18343018878407706956
12633257 1 17275099556839840385
12788726 201 18335433330460669424
13103583 49 17988649609538855603
13383661 66 16301234702270082339
13402501 40 17989211421210067950
13782708 43 18117559751122331411
13911987 19 15575866978996060918
14068700 675 18333449850244375085
14251764 30 18271813376381478390
14341114 176 17060337414291176696
14705955 166 16845301475154802970
14931854 50 11819265672795761483
14950920 106 16343704365258523387
15001296 14 18115871969590306446
15131766 46 14619357897700078898
15183329 4 14851603258683087641
15537594 2 18408604755811322562
16110190 28 18059854012570752072
17349148 13 17822578214202621658
1813 80 18186798110286499725
19377110 9 18407758145386044944
20764821 26 18117568533228165202
20775438 99 16445885412374611794
20775530 9 18263353862344557667
21033648 29 16056589899003879610
21756936 100 12463270541290325872
21792934 111 17704081703358377443
22393880 68 12829211087593859360
23559900 14 18200597016118041585
2838139 119 8790887363216671638
3004659 81 18334863843645852733
3459 110 16701725138044371910
3459 39 10375594741846110274
3472631 163 10231747898978803994
392239 28 18059274540347830090
4015057 19 15068634789796377356
4098825 35 15502367894790592855
439807 62 17530684307945986819
46194498 28 13768798761878567430
463206 1 18188208818360242915
469060 322 18337121080946150464
474 4 11167945757466778365
474113 269 18058161908255127687
50009960 94 17906986810654670547
508706 21 18130785594937800877
57724786 102 13830121811542483794
6669772 16 16951982867331331156
70251023 43 17821732757837462269
7970288 3 18335982051346149491

> <PUBCHEM_SHAPE_MULTIPOLES>
661.52
14.22
2.9
2.06
2.41
0.47
0.09
-10.32
2.73
-2.14
0.06
1.07
0.06
-0.28

> <PUBCHEM_SHAPE_SELFOVERLAP>
1393.232

> <PUBCHEM_SHAPE_VOLUME>
360.8

> <PUBCHEM_COORDINATE_TYPE>
2
5
10

$$$$
