101500246
  -OEChem-09082014493D

 56 59  0     1  0  0  0  0  0999 V2000
   -0.6016   -2.3382   -0.2982 O   0  0  0  0  0  0  0  0  0  0  0  0
   -2.7438    1.0619   -0.6556 O   0  0  0  0  0  0  0  0  0  0  0  0
   -1.5228   -3.8210    1.2148 O   0  0  0  0  0  0  0  0  0  0  0  0
   -3.6926    2.1593    1.1423 O   0  0  0  0  0  0  0  0  0  0  0  0
    2.9215    0.9143   -0.3209 N   0  0  1  0  0  0  0  0  0  0  0  0
    1.5090    0.4706   -0.2557 C   0  0  2  0  0  0  0  0  0  0  0  0
    0.7083    1.2641    0.7637 C   0  0  1  0  0  0  0  0  0  0  0  0
    1.4584   -1.0695    0.2426 C   0  0  1  0  0  0  0  0  0  0  0  0
   -0.6876    0.6531    0.5605 C   0  0  3  0  0  0  0  0  0  0  0  0
    0.7845    0.8187   -1.6681 C   0  0  0  0  0  0  0  0  0  0  0  0
    0.0775   -1.6649    0.7681 C   0  0  1  0  0  0  0  0  0  0  0  0
   -1.4689    1.5981   -0.3241 C   0  0  1  0  0  0  0  0  0  0  0  0
   -0.9239   -0.5994    1.3735 C   0  0  0  0  0  0  0  0  0  0  0  0
   -0.5782    1.7155   -1.6500 C   0  0  1  0  0  0  0  0  0  0  0  0
    1.3311    1.2917    2.1568 C   0  0  0  0  0  0  0  0  0  0  0  0
    2.2134   -1.9588   -0.7516 C   0  0  0  0  0  0  0  0  0  0  0  0
    3.5754    1.0561    0.9938 C   0  0  0  0  0  0  0  0  0  0  0  0
    3.7146    0.0567   -1.2233 C   0  0  0  0  0  0  0  0  0  0  0  0
    2.7500    1.8455    2.0179 C   0  0  0  0  0  0  0  0  0  0  0  0
    3.6451   -1.4467   -0.9256 C   0  0  0  0  0  0  0  0  0  0  0  0
   -0.2662    3.1820   -1.9659 C   0  0  0  0  0  0  0  0  0  0  0  0
   -1.3678   -3.4014    0.0760 C   0  0  0  0  0  0  0  0  0  0  0  0
   -3.7742    1.4261    0.1661 C   0  0  0  0  0  0  0  0  0  0  0  0
   -2.0130   -4.0036   -1.1354 C   0  0  0  0  0  0  0  0  0  0  0  0
   -5.0481    0.7900   -0.3015 C   0  0  0  0  0  0  0  0  0  0  0  0
    0.6992    2.3227    0.4750 H   0  0  0  0  0  0  0  0  0  0  0  0
    2.0621   -1.1076    1.1597 H   0  0  0  0  0  0  0  0  0  0  0  0
   -0.6804   -0.0087   -0.3116 H   0  0  0  0  0  0  0  0  0  0  0  0
    0.5421   -0.1253   -2.1723 H   0  0  0  0  0  0  0  0  0  0  0  0
    1.4863    1.3294   -2.3389 H   0  0  0  0  0  0  0  0  0  0  0  0
    0.3263   -2.3917    1.5531 H   0  0  0  0  0  0  0  0  0  0  0  0
   -1.5743    2.5868    0.1400 H   0  0  0  0  0  0  0  0  0  0  0  0
   -0.7181   -0.4306    2.4341 H   0  0  0  0  0  0  0  0  0  0  0  0
   -1.9642   -0.9336    1.2915 H   0  0  0  0  0  0  0  0  0  0  0  0
   -1.1822    1.3498   -2.4925 H   0  0  0  0  0  0  0  0  0  0  0  0
    1.3710    0.3090    2.6345 H   0  0  0  0  0  0  0  0  0  0  0  0
    0.7424    1.9389    2.8172 H   0  0  0  0  0  0  0  0  0  0  0  0
    1.7053   -1.9793   -1.7213 H   0  0  0  0  0  0  0  0  0  0  0  0
    2.2436   -2.9925   -0.3875 H   0  0  0  0  0  0  0  0  0  0  0  0
    3.8252    0.0828    1.4308 H   0  0  0  0  0  0  0  0  0  0  0  0
    4.5287    1.5819    0.8568 H   0  0  0  0  0  0  0  0  0  0  0  0
    4.7637    0.3791   -1.2151 H   0  0  0  0  0  0  0  0  0  0  0  0
    3.3844    0.2181   -2.2562 H   0  0  0  0  0  0  0  0  0  0  0  0
    2.7037    2.8986    1.7118 H   0  0  0  0  0  0  0  0  0  0  0  0
    3.2515    1.8220    2.9921 H   0  0  0  0  0  0  0  0  0  0  0  0
    4.2169   -1.6668   -0.0159 H   0  0  0  0  0  0  0  0  0  0  0  0
    4.1324   -2.0013   -1.7361 H   0  0  0  0  0  0  0  0  0  0  0  0
    0.3896    3.6358   -1.2183 H   0  0  0  0  0  0  0  0  0  0  0  0
   -1.1889    3.7703   -2.0112 H   0  0  0  0  0  0  0  0  0  0  0  0
    0.2280    3.2685   -2.9394 H   0  0  0  0  0  0  0  0  0  0  0  0
   -2.6593   -3.2649   -1.6162 H   0  0  0  0  0  0  0  0  0  0  0  0
   -2.6251   -4.8583   -0.8333 H   0  0  0  0  0  0  0  0  0  0  0  0
   -1.2446   -4.3534   -1.8293 H   0  0  0  0  0  0  0  0  0  0  0  0
   -4.9499   -0.2982   -0.2731 H   0  0  0  0  0  0  0  0  0  0  0  0
   -5.2818    1.1296   -1.3136 H   0  0  0  0  0  0  0  0  0  0  0  0
   -5.8657    1.0838    0.3628 H   0  0  0  0  0  0  0  0  0  0  0  0
  1 11  1  0  0  0  0
  1 22  1  0  0  0  0
  2 12  1  0  0  0  0
  2 23  1  0  0  0  0
  3 22  2  0  0  0  0
  4 23  2  0  0  0  0
  5  6  1  0  0  0  0
  5 17  1  0  0  0  0
  5 18  1  0  0  0  0
  6  7  1  0  0  0  0
  6  8  1  0  0  0  0
  6 10  1  0  0  0  0
  7  9  1  0  0  0  0
  7 15  1  0  0  0  0
  7 26  1  0  0  0  0
  8 11  1  0  0  0  0
  8 16  1  0  0  0  0
  8 27  1  0  0  0  0
  9 12  1  0  0  0  0
  9 13  1  0  0  0  0
  9 28  1  0  0  0  0
 10 14  1  0  0  0  0
 10 29  1  0  0  0  0
 10 30  1  0  0  0  0
 11 13  1  0  0  0  0
 11 31  1  0  0  0  0
 12 14  1  0  0  0  0
 12 32  1  0  0  0  0
 13 33  1  0  0  0  0
 13 34  1  0  0  0  0
 14 21  1  0  0  0  0
 14 35  1  0  0  0  0
 15 19  1  0  0  0  0
 15 36  1  0  0  0  0
 15 37  1  0  0  0  0
 16 20  1  0  0  0  0
 16 38  1  0  0  0  0
 16 39  1  0  0  0  0
 17 19  1  0  0  0  0
 17 40  1  0  0  0  0
 17 41  1  0  0  0  0
 18 20  1  0  0  0  0
 18 42  1  0  0  0  0
 18 43  1  0  0  0  0
 19 44  1  0  0  0  0
 19 45  1  0  0  0  0
 20 46  1  0  0  0  0
 20 47  1  0  0  0  0
 21 48  1  0  0  0  0
 21 49  1  0  0  0  0
 21 50  1  0  0  0  0
 22 24  1  0  0  0  0
 23 25  1  0  0  0  0
 24 51  1  0  0  0  0
 24 52  1  0  0  0  0
 24 53  1  0  0  0  0
 25 54  1  0  0  0  0
 25 55  1  0  0  0  0
 25 56  1  0  0  0  0
M  END
> <PUBCHEM_COMPOUND_CID>
101500246

> <PUBCHEM_CONFORMER_RMSD>
0.8

> <PUBCHEM_CONFORMER_DIVERSEORDER>
1
2
3

> <PUBCHEM_MMFF94_PARTIAL_CHARGES>
14
1 -0.43
11 0.28
12 0.28
17 0.27
18 0.27
2 -0.43
22 0.66
23 0.66
24 0.06
25 0.06
3 -0.57
4 -0.57
5 -0.81
6 0.27

> <PUBCHEM_EFFECTIVE_ROTOR_COUNT>
6.2

> <PUBCHEM_PHARMACOPHORE_FEATURES>
7
1 3 acceptor
1 4 acceptor
1 5 cation
6 5 6 7 15 17 19 rings
6 5 6 8 16 18 20 rings
6 6 7 8 9 11 13 rings
6 6 7 9 10 12 14 rings

> <PUBCHEM_HEAVY_ATOM_COUNT>
25

> <PUBCHEM_ATOM_DEF_STEREO_COUNT>
7

> <PUBCHEM_ATOM_UDEF_STEREO_COUNT>
0

> <PUBCHEM_BOND_DEF_STEREO_COUNT>
0

> <PUBCHEM_BOND_UDEF_STEREO_COUNT>
0

> <PUBCHEM_ISOTOPIC_ATOM_COUNT>
0

> <PUBCHEM_COMPONENT_COUNT>
1

> <PUBCHEM_CACTVS_TAUTO_COUNT>
4

> <PUBCHEM_CONFORMER_ID>
060CC55600000001

> <PUBCHEM_MMFF94_ENERGY>
145.7633

> <PUBCHEM_FEATURE_SELFOVERLAP>
36.421

> <PUBCHEM_SHAPE_FINGERPRINT>
10064457 181 18341622485982506065
10165383 225 18410863131430921504
104564 63 18121782991377486502
10863032 1 17703782643593293764
11578080 2 17913789459009065104
116883 192 18050566541104632447
12035758 1 18340200796173441882
12035759 4 17396150491442722532
12293681 4 17989769999071450560
12539773 59 14523762671567658615
12715332 25 18266740190828248750
12788726 201 17830454247366909171
13149001 5 18201442450106953846
16945 1 18270137763562629448
17357779 13 17981596379764592758
17980427 23 17460875344410705780
17980427 26 17914028942011537400
19591789 44 18338237038199186743
20600515 1 17034963103651246699
20642791 13 18052522563557950051
20691752 17 18264187184846792901
20832881 197 17843408379764142616
20905425 154 17392479887816344803
21421861 104 17404884548263093401
22112679 90 17604979480934009904
229495 10 16748780636578719728
23419403 2 17199981017241601364
23557571 272 18051682536684969827
23558518 356 17827358001058753505
23559900 14 18343027696909404356
238 59 17757803677322367717
2748010 2 18262536809187749099
3052486 1 18115858771282295915
3060560 45 18187927231692796037
3286 77 18129659677867257380
3323516 105 18272366417275414505
34934 24 17386017212203995564
4340502 62 18201428190699486849
495365 180 17906141011714266453
57527306 92 16661512630789117382
81228 2 18190451856113271507
9981440 41 16553920075177654984

> <PUBCHEM_SHAPE_MULTIPOLES>
486.03
6.21
4.17
1.84
3.05
4.58
0.13
-1.95
-0.06
2.96
-0.62
-0.78
-0.97
0.85

> <PUBCHEM_SHAPE_SELFOVERLAP>
1015.632

> <PUBCHEM_SHAPE_VOLUME>
272.3

> <PUBCHEM_COORDINATE_TYPE>
2
5
10

$$$$
