11054525
  -OEChem-09082014563D

 44 47  0     1  0  0  0  0  0999 V2000
   -3.1094    0.7876    1.5278 O   0  0  0  0  0  0  0  0  0  0  0  0
   -1.6197   -1.3861    2.0696 O   0  0  0  0  0  0  0  0  0  0  0  0
    2.0757   -0.0097   -0.7336 N   0  0  1  0  0  0  0  0  0  0  0  0
    0.6178   -0.0155   -0.4127 C   0  0  2  0  0  0  0  0  0  0  0  0
    0.0300    1.4213   -0.5383 C   0  0  1  0  0  0  0  0  0  0  0  0
   -1.4722    1.3933   -0.1889 C   0  0  1  0  0  0  0  0  0  0  0  0
    0.4050   -0.5687    1.0322 C   0  0  2  0  0  0  0  0  0  0  0  0
   -0.1176   -0.8655   -1.5119 C   0  0  0  0  0  0  0  0  0  0  0  0
   -1.6576   -0.8385   -1.4582 C   0  0  1  0  0  0  0  0  0  0  0  0
   -2.2094    0.5813   -1.2747 C   0  0  0  0  0  0  0  0  0  0  0  0
    0.8166    2.4638    0.2613 C   0  0  0  0  0  0  0  0  0  0  0  0
   -1.7269    0.8710    1.2357 C   0  0  2  0  0  0  0  0  0  0  0  0
    0.9832   -1.9779    1.1924 C   0  0  0  0  0  0  0  0  0  0  0  0
   -1.0489   -0.4708    1.4778 C   0  0  0  0  0  0  0  0  0  0  0  0
    2.8514    1.0120   -0.0096 C   0  0  0  0  0  0  0  0  0  0  0  0
    2.6979   -1.3379   -0.5740 C   0  0  0  0  0  0  0  0  0  0  0  0
    2.2770    2.4175   -0.1649 C   0  0  0  0  0  0  0  0  0  0  0  0
    2.4548   -1.9963    0.7872 C   0  0  0  0  0  0  0  0  0  0  0  0
   -2.2476   -1.4806   -2.7170 C   0  0  0  0  0  0  0  0  0  0  0  0
    0.1141    1.7348   -1.5913 H   0  0  0  0  0  0  0  0  0  0  0  0
   -1.8749    2.4141   -0.2432 H   0  0  0  0  0  0  0  0  0  0  0  0
    0.9364    0.0664    1.7539 H   0  0  0  0  0  0  0  0  0  0  0  0
    0.1942   -1.9152   -1.4850 H   0  0  0  0  0  0  0  0  0  0  0  0
    0.1966   -0.4924   -2.4984 H   0  0  0  0  0  0  0  0  0  0  0  0
   -1.9902   -1.4587   -0.6196 H   0  0  0  0  0  0  0  0  0  0  0  0
   -3.2826    0.5353   -1.0532 H   0  0  0  0  0  0  0  0  0  0  0  0
   -2.1235    1.1256   -2.2253 H   0  0  0  0  0  0  0  0  0  0  0  0
    0.7460    2.2939    1.3402 H   0  0  0  0  0  0  0  0  0  0  0  0
    0.4124    3.4652    0.0723 H   0  0  0  0  0  0  0  0  0  0  0  0
   -1.2995    1.5736    1.9600 H   0  0  0  0  0  0  0  0  0  0  0  0
    0.4174   -2.7027    0.5957 H   0  0  0  0  0  0  0  0  0  0  0  0
    0.8924   -2.3099    2.2340 H   0  0  0  0  0  0  0  0  0  0  0  0
    3.8761    1.0293   -0.4018 H   0  0  0  0  0  0  0  0  0  0  0  0
    2.9316    0.7796    1.0585 H   0  0  0  0  0  0  0  0  0  0  0  0
    3.7787   -1.2701   -0.7540 H   0  0  0  0  0  0  0  0  0  0  0  0
    2.3361   -2.0048   -1.3649 H   0  0  0  0  0  0  0  0  0  0  0  0
    2.3683    2.7403   -1.2097 H   0  0  0  0  0  0  0  0  0  0  0  0
    2.8600    3.1235    0.4373 H   0  0  0  0  0  0  0  0  0  0  0  0
    3.0447   -1.4817    1.5554 H   0  0  0  0  0  0  0  0  0  0  0  0
    2.8147   -3.0314    0.7636 H   0  0  0  0  0  0  0  0  0  0  0  0
   -1.8940   -2.5111   -2.8287 H   0  0  0  0  0  0  0  0  0  0  0  0
   -3.3412   -1.5053   -2.6632 H   0  0  0  0  0  0  0  0  0  0  0  0
   -1.9653   -0.9261   -3.6184 H   0  0  0  0  0  0  0  0  0  0  0  0
   -3.1981    0.5701    2.4715 H   0  0  0  0  0  0  0  0  0  0  0  0
  1 12  1  0  0  0  0
  1 44  1  0  0  0  0
  2 14  2  0  0  0  0
  3  4  1  0  0  0  0
  3 15  1  0  0  0  0
  3 16  1  0  0  0  0
  4  5  1  0  0  0  0
  4  7  1  0  0  0  0
  4  8  1  0  0  0  0
  5  6  1  0  0  0  0
  5 11  1  0  0  0  0
  5 20  1  0  0  0  0
  6 10  1  0  0  0  0
  6 12  1  0  0  0  0
  6 21  1  0  0  0  0
  7 13  1  0  0  0  0
  7 14  1  0  0  0  0
  7 22  1  0  0  0  0
  8  9  1  0  0  0  0
  8 23  1  0  0  0  0
  8 24  1  0  0  0  0
  9 10  1  0  0  0  0
  9 19  1  0  0  0  0
  9 25  1  0  0  0  0
 10 26  1  0  0  0  0
 10 27  1  0  0  0  0
 11 17  1  0  0  0  0
 11 28  1  0  0  0  0
 11 29  1  0  0  0  0
 12 14  1  0  0  0  0
 12 30  1  0  0  0  0
 13 18  1  0  0  0  0
 13 31  1  0  0  0  0
 13 32  1  0  0  0  0
 15 17  1  0  0  0  0
 15 33  1  0  0  0  0
 15 34  1  0  0  0  0
 16 18  1  0  0  0  0
 16 35  1  0  0  0  0
 16 36  1  0  0  0  0
 17 37  1  0  0  0  0
 17 38  1  0  0  0  0
 18 39  1  0  0  0  0
 18 40  1  0  0  0  0
 19 41  1  0  0  0  0
 19 42  1  0  0  0  0
 19 43  1  0  0  0  0
M  END
> <PUBCHEM_COMPOUND_CID>
11054525

> <PUBCHEM_CONFORMER_RMSD>
0.6

> <PUBCHEM_CONFORMER_DIVERSEORDER>
1

> <PUBCHEM_MMFF94_PARTIAL_CHARGES>
10
1 -0.68
12 0.34
14 0.45
15 0.27
16 0.27
2 -0.57
3 -0.81
4 0.27
44 0.4
7 0.06

> <PUBCHEM_EFFECTIVE_ROTOR_COUNT>
2

> <PUBCHEM_PHARMACOPHORE_FEATURES>
8
1 1 acceptor
1 1 donor
1 2 acceptor
1 3 cation
6 3 4 5 11 15 17 rings
6 3 4 7 13 16 18 rings
6 4 5 6 7 12 14 rings
6 4 5 6 8 9 10 rings

> <PUBCHEM_HEAVY_ATOM_COUNT>
19

> <PUBCHEM_ATOM_DEF_STEREO_COUNT>
6

> <PUBCHEM_ATOM_UDEF_STEREO_COUNT>
0

> <PUBCHEM_BOND_DEF_STEREO_COUNT>
0

> <PUBCHEM_BOND_UDEF_STEREO_COUNT>
0

> <PUBCHEM_ISOTOPIC_ATOM_COUNT>
0

> <PUBCHEM_COMPONENT_COUNT>
1

> <PUBCHEM_CACTVS_TAUTO_COUNT>
3

> <PUBCHEM_CONFORMER_ID>
00A8ADBD00000001

> <PUBCHEM_MMFF94_ENERGY>
39.0905

> <PUBCHEM_FEATURE_SELFOVERLAP>
42.332

> <PUBCHEM_SHAPE_FINGERPRINT>
10863032 1 18265916772466578025
10948715 1 18129118825578551025
11578080 2 17168150022246517037
12138202 97 16661466541189055942
12202030 40 17022905609937798138
12423570 1 8669563375904565741
12491281 212 17988371463125077236
12716301 132 15647041647252091537
13024252 1 17244429586258161922
13027679 85 18042986280319624832
13172582 1 17986673666784320508
13538477 17 17203614791185356691
13898156 1 17489313026491982632
14115302 16 17559649812192479005
141345 1 13367015952848094997
144361 1 18201426030177800020
14617773 55 17702664517519072381
14761567 1 17750235807608270178
14817 1 14088586595000373703
15852999 172 17024561560433126598
15881359 60 17253982564250320000
16945 1 18122344566824932182
20511035 2 18267891430694075501
21452121 199 17482786359876982407
22112679 90 18130494258906024108
22344851 341 17623818594546981061
23236772 104 17986957542526573164
23419403 2 17531240630379482107
23559900 14 17970360213844981758
2748010 2 18042139793710225800
3286 77 17896048658774901747
353137 74 17984404510928749028
5845 1 16121554629256219326
68419 9 17703512198029061701
6992083 37 17987230024089536638

> <PUBCHEM_SHAPE_MULTIPOLES>
374.29
3.9
2.46
2.03
0.44
0.62
0.13
-0.21
-0.55
1.19
-0.05
-1.74
-1.01
-1.06

> <PUBCHEM_SHAPE_SELFOVERLAP>
803.119

> <PUBCHEM_SHAPE_VOLUME>
202.5

> <PUBCHEM_COORDINATE_TYPE>
2
5
10

$$$$
