179734
  -OEChem-09082015323D

 42 44  0     1  0  0  0  0  0999 V2000
   -0.1604    2.8970   -1.4955 O   0  0  0  0  0  0  0  0  0  0  0  0
    0.1259   -1.2565   -2.1988 O   0  0  0  0  0  0  0  0  0  0  0  0
    1.4121   -1.4434   -0.2831 N   0  0  0  0  0  0  0  0  0  0  0  0
   -1.5787    1.0571    1.1804 C   0  0  2  0  0  0  0  0  0  0  0  0
   -0.0797    0.8222    1.2278 C   0  0  0  0  0  0  0  0  0  0  0  0
   -2.4688   -0.1747    0.8921 C   0  0  0  0  0  0  0  0  0  0  0  0
   -1.7673    2.1513    0.1280 C   0  0  0  0  0  0  0  0  0  0  0  0
   -2.2002   -0.9766   -0.4101 C   0  0  1  0  0  0  0  0  0  0  0  0
    0.5961    1.4608    0.2571 C   0  0  0  0  0  0  0  0  0  0  0  0
    0.4451   -0.0444    2.3472 C   0  0  0  0  0  0  0  0  0  0  0  0
   -0.4143    2.2360   -0.4987 C   0  0  0  0  0  0  0  0  0  0  0  0
    2.0399    1.5594   -0.1041 C   0  0  0  0  0  0  0  0  0  0  0  0
    1.7173   -0.8765    2.1489 C   0  0  0  0  0  0  0  0  0  0  0  0
   -1.0403   -1.9887   -0.2584 C   0  0  0  0  0  0  0  0  0  0  0  0
    2.4264    0.6529   -1.2782 C   0  0  0  0  0  0  0  0  0  0  0  0
    1.6329   -1.9607    1.0729 C   0  0  0  0  0  0  0  0  0  0  0  0
    2.5771   -0.8369   -0.9378 C   0  0  0  0  0  0  0  0  0  0  0  0
    0.2143   -1.5379   -0.9980 C   0  0  0  0  0  0  0  0  0  0  0  0
   -3.4773   -1.7404   -0.7917 C   0  0  0  0  0  0  0  0  0  0  0  0
   -1.8968    1.4645    2.1500 H   0  0  0  0  0  0  0  0  0  0  0  0
   -2.4376   -0.8566    1.7515 H   0  0  0  0  0  0  0  0  0  0  0  0
   -3.5038    0.1951    0.8644 H   0  0  0  0  0  0  0  0  0  0  0  0
   -2.0012    3.1135    0.5956 H   0  0  0  0  0  0  0  0  0  0  0  0
   -2.5254    1.9139   -0.6228 H   0  0  0  0  0  0  0  0  0  0  0  0
   -1.9975   -0.2770   -1.2283 H   0  0  0  0  0  0  0  0  0  0  0  0
    0.5989    0.6105    3.2151 H   0  0  0  0  0  0  0  0  0  0  0  0
   -0.3411   -0.7445    2.6533 H   0  0  0  0  0  0  0  0  0  0  0  0
    2.2487    2.5981   -0.3934 H   0  0  0  0  0  0  0  0  0  0  0  0
    2.6908    1.3824    0.7542 H   0  0  0  0  0  0  0  0  0  0  0  0
    2.5832   -0.2339    1.9776 H   0  0  0  0  0  0  0  0  0  0  0  0
    1.9282   -1.3815    3.1014 H   0  0  0  0  0  0  0  0  0  0  0  0
   -1.3016   -2.9536   -0.7126 H   0  0  0  0  0  0  0  0  0  0  0  0
   -0.8846   -2.1944    0.7971 H   0  0  0  0  0  0  0  0  0  0  0  0
    1.7068    0.7789   -2.0960 H   0  0  0  0  0  0  0  0  0  0  0  0
    3.3899    0.9978   -1.6748 H   0  0  0  0  0  0  0  0  0  0  0  0
    2.5787   -2.5177    1.0549 H   0  0  0  0  0  0  0  0  0  0  0  0
    0.8824   -2.7060    1.3415 H   0  0  0  0  0  0  0  0  0  0  0  0
    2.7587   -1.3929   -1.8657 H   0  0  0  0  0  0  0  0  0  0  0  0
    3.4621   -0.9746   -0.3060 H   0  0  0  0  0  0  0  0  0  0  0  0
   -3.3354   -2.2928   -1.7269 H   0  0  0  0  0  0  0  0  0  0  0  0
   -3.7606   -2.4549   -0.0112 H   0  0  0  0  0  0  0  0  0  0  0  0
   -4.3146   -1.0507   -0.9424 H   0  0  0  0  0  0  0  0  0  0  0  0
  1 11  2  0  0  0  0
  2 18  2  0  0  0  0
  3 16  1  0  0  0  0
  3 17  1  0  0  0  0
  3 18  1  0  0  0  0
  4  5  1  0  0  0  0
  4  6  1  0  0  0  0
  4  7  1  0  0  0  0
  4 20  1  0  0  0  0
  5  9  2  0  0  0  0
  5 10  1  0  0  0  0
  6  8  1  0  0  0  0
  6 21  1  0  0  0  0
  6 22  1  0  0  0  0
  7 11  1  0  0  0  0
  7 23  1  0  0  0  0
  7 24  1  0  0  0  0
  8 14  1  0  0  0  0
  8 19  1  0  0  0  0
  8 25  1  0  0  0  0
  9 11  1  0  0  0  0
  9 12  1  0  0  0  0
 10 13  1  0  0  0  0
 10 26  1  0  0  0  0
 10 27  1  0  0  0  0
 12 15  1  0  0  0  0
 12 28  1  0  0  0  0
 12 29  1  0  0  0  0
 13 16  1  0  0  0  0
 13 30  1  0  0  0  0
 13 31  1  0  0  0  0
 14 18  1  0  0  0  0
 14 32  1  0  0  0  0
 14 33  1  0  0  0  0
 15 17  1  0  0  0  0
 15 34  1  0  0  0  0
 15 35  1  0  0  0  0
 16 36  1  0  0  0  0
 16 37  1  0  0  0  0
 17 38  1  0  0  0  0
 17 39  1  0  0  0  0
 19 40  1  0  0  0  0
 19 41  1  0  0  0  0
 19 42  1  0  0  0  0
M  END
> <PUBCHEM_COMPOUND_CID>
179734

> <PUBCHEM_CONFORMER_RMSD>
0.6

> <PUBCHEM_CONFORMER_DIVERSEORDER>
1
5
4
2
3

> <PUBCHEM_MMFF94_PARTIAL_CHARGES>
14
1 -0.57
10 0.14
11 0.49
12 0.14
14 0.06
16 0.3
17 0.3
18 0.57
2 -0.57
3 -0.66
4 0.14
5 -0.28
7 0.06
9 -0.12

> <PUBCHEM_EFFECTIVE_ROTOR_COUNT>
2

> <PUBCHEM_PHARMACOPHORE_FEATURES>
3
1 1 acceptor
1 2 acceptor
5 4 5 7 9 11 rings

> <PUBCHEM_HEAVY_ATOM_COUNT>
19

> <PUBCHEM_ATOM_DEF_STEREO_COUNT>
0

> <PUBCHEM_ATOM_UDEF_STEREO_COUNT>
2

> <PUBCHEM_BOND_DEF_STEREO_COUNT>
0

> <PUBCHEM_BOND_UDEF_STEREO_COUNT>
0

> <PUBCHEM_ISOTOPIC_ATOM_COUNT>
0

> <PUBCHEM_COMPONENT_COUNT>
1

> <PUBCHEM_CACTVS_TAUTO_COUNT>
11

> <PUBCHEM_CONFORMER_ID>
0002BE1600000001

> <PUBCHEM_MMFF94_ENERGY>
44.3507

> <PUBCHEM_FEATURE_SELFOVERLAP>
15.223

> <PUBCHEM_SHAPE_FINGERPRINT>
104564 63 18130804381377844109
10863032 1 16845032176563057656
12423570 1 11053545120466415104
12654903 92 17554610977645335887
141345 1 10618280567583889802
14181834 199 17552881394679363575
144361 1 18201451305960175323
14817 1 15220898737349159826
15852999 172 17406519556107275081
15881359 60 17769048533021360999
16945 1 18055650639736796048
17357779 13 17915434186970756695
17492 54 18194137427637099404
20691752 17 18408601483204206451
21330990 113 16839646962332587232
23419403 2 17274526660290930650
23559900 14 16980133792133903024
238 59 16899601213812902503
2748010 2 18341902865594791725
3052486 1 17684612504493354861
353137 74 18338804527626734016
4175511 376 17751916071696839353
430814 3 16384762581818135899

> <PUBCHEM_SHAPE_MULTIPOLES>
374.29
3.59
2.84
1.96
1.52
1
-0.57
-1.3
0.64
0.39
0.79
-0.7
-0.29
-0.71

> <PUBCHEM_SHAPE_SELFOVERLAP>
783.534

> <PUBCHEM_SHAPE_VOLUME>
207.4

> <PUBCHEM_COORDINATE_TYPE>
2
5
10

$$$$
