164947
  -OEChem-09082016013D

 82 86  0     1  0  0  0  0  0999 V2000
    5.2983    3.3103    0.0984 O   0  0  0  0  0  0  0  0  0  0  0  0
   -6.5934    1.8520   -0.4313 O   0  0  0  0  0  0  0  0  0  0  0  0
    2.7066   -0.0664   -0.8033 C   0  0  2  0  0  0  0  0  0  0  0  0
    1.3108   -0.8454   -0.6542 C   0  0  2  0  0  0  0  0  0  0  0  0
    1.3904   -2.2235    0.1107 C   0  0  1  0  0  0  0  0  0  0  0  0
    3.3176    0.0848    0.6426 C   0  0  2  0  0  0  0  0  0  0  0  0
   -2.6786   -0.0437   -0.5955 C   0  0  2  0  0  0  0  0  0  0  0  0
    4.5537    1.0529    0.7838 C   0  0  0  0  0  0  0  0  0  0  0  0
   -1.8233   -1.3808   -0.7061 C   0  0  1  0  0  0  0  0  0  0  0  0
    2.1661   -2.0224    1.4399 C   0  0  0  0  0  0  0  0  0  0  0  0
    3.5000   -1.2911    1.3100 C   0  0  0  0  0  0  0  0  0  0  0  0
    0.4848   -0.8854   -1.9679 C   0  0  0  0  0  0  0  0  0  0  0  0
    2.4348    1.3676   -1.3532 C   0  0  0  0  0  0  0  0  0  0  0  0
   -0.0246   -2.7901    0.4949 C   0  0  0  0  0  0  0  0  0  0  0  0
   -3.5551   -0.1843    0.7096 C   0  0  2  0  0  0  0  0  0  0  0  0
   -0.9087   -1.5288   -1.9500 C   0  0  0  0  0  0  0  0  0  0  0  0
   -1.1310   -1.7684    0.5931 C   0  0  0  0  0  0  0  0  0  0  0  0
    4.1785    2.4268    0.1533 C   0  0  2  0  0  0  0  0  0  0  0  0
    3.6256    2.3170   -1.2619 C   0  0  0  0  0  0  0  0  0  0  0  0
    3.6548   -0.7784   -1.7990 C   0  0  0  0  0  0  0  0  0  0  0  0
   -4.7734    0.8054    0.8782 C   0  0  0  0  0  0  0  0  0  0  0  0
   -3.6120    0.0708   -1.8283 C   0  0  0  0  0  0  0  0  0  0  0  0
    2.0825   -3.3410   -0.7017 C   0  0  0  0  0  0  0  0  0  0  0  0
   -2.6519   -0.3050    1.9593 C   0  0  0  0  0  0  0  0  0  0  0  0
   -5.5786    0.8488   -0.4542 C   0  0  2  0  0  0  0  0  0  0  0  0
   -1.5149   -1.2670    1.7793 C   0  0  0  0  0  0  0  0  0  0  0  0
   -4.7061    1.1186   -1.6754 C   0  0  0  0  0  0  0  0  0  0  0  0
   -1.7576    1.1945   -0.5610 C   0  0  0  0  0  0  0  0  0  0  0  0
    5.8572    0.4941    0.1788 C   0  0  0  0  0  0  0  0  0  0  0  0
    4.8526    1.2966    2.2904 C   0  0  0  0  0  0  0  0  0  0  0  0
   -5.7149    0.2516    1.9857 C   0  0  0  0  0  0  0  0  0  0  0  0
   -4.3900    2.2297    1.3349 C   0  0  0  0  0  0  0  0  0  0  0  0
    0.7423   -0.1837    0.0119 H   0  0  0  0  0  0  0  0  0  0  0  0
    2.5289    0.5824    1.2324 H   0  0  0  0  0  0  0  0  0  0  0  0
   -2.5692   -2.1811   -0.8489 H   0  0  0  0  0  0  0  0  0  0  0  0
    2.3467   -2.9930    1.9208 H   0  0  0  0  0  0  0  0  0  0  0  0
    1.5418   -1.4525    2.1412 H   0  0  0  0  0  0  0  0  0  0  0  0
    3.8965   -1.1784    2.3237 H   0  0  0  0  0  0  0  0  0  0  0  0
    4.2230   -1.9118    0.7747 H   0  0  0  0  0  0  0  0  0  0  0  0
    1.0528   -1.3955   -2.7527 H   0  0  0  0  0  0  0  0  0  0  0  0
    0.3546    0.1339   -2.3397 H   0  0  0  0  0  0  0  0  0  0  0  0
    1.5982    1.8180   -0.8029 H   0  0  0  0  0  0  0  0  0  0  0  0
    2.1292    1.3229   -2.4052 H   0  0  0  0  0  0  0  0  0  0  0  0
    0.0483   -3.3420    1.4434 H   0  0  0  0  0  0  0  0  0  0  0  0
   -0.3417   -3.5643   -0.2166 H   0  0  0  0  0  0  0  0  0  0  0  0
   -4.0376   -1.1722    0.6086 H   0  0  0  0  0  0  0  0  0  0  0  0
   -1.4447   -1.1972   -2.8467 H   0  0  0  0  0  0  0  0  0  0  0  0
   -0.7643   -2.6033   -2.1307 H   0  0  0  0  0  0  0  0  0  0  0  0
    3.4233    2.9163    0.7814 H   0  0  0  0  0  0  0  0  0  0  0  0
    4.4146    2.0279   -1.9647 H   0  0  0  0  0  0  0  0  0  0  0  0
    3.3130    3.3140   -1.6000 H   0  0  0  0  0  0  0  0  0  0  0  0
    4.3050   -1.5117   -1.3206 H   0  0  0  0  0  0  0  0  0  0  0  0
    3.1140   -1.2937   -2.5957 H   0  0  0  0  0  0  0  0  0  0  0  0
    4.3191   -0.0830   -2.3175 H   0  0  0  0  0  0  0  0  0  0  0  0
   -4.0914   -0.8985   -2.0190 H   0  0  0  0  0  0  0  0  0  0  0  0
   -3.0343    0.3102   -2.7288 H   0  0  0  0  0  0  0  0  0  0  0  0
    3.1513   -3.1808   -0.8354 H   0  0  0  0  0  0  0  0  0  0  0  0
    1.9879   -4.3062   -0.1882 H   0  0  0  0  0  0  0  0  0  0  0  0
    1.6312   -3.4585   -1.6919 H   0  0  0  0  0  0  0  0  0  0  0  0
   -3.2455   -0.6576    2.8095 H   0  0  0  0  0  0  0  0  0  0  0  0
   -2.2301    0.6640    2.2437 H   0  0  0  0  0  0  0  0  0  0  0  0
   -6.0870   -0.1144   -0.5941 H   0  0  0  0  0  0  0  0  0  0  0  0
   -0.9932   -1.5680    2.6842 H   0  0  0  0  0  0  0  0  0  0  0  0
   -4.2832    2.1287   -1.6363 H   0  0  0  0  0  0  0  0  0  0  0  0
   -5.3330    1.1122   -2.5767 H   0  0  0  0  0  0  0  0  0  0  0  0
   -1.0355    1.1633    0.2580 H   0  0  0  0  0  0  0  0  0  0  0  0
   -1.1992    1.2972   -1.4942 H   0  0  0  0  0  0  0  0  0  0  0  0
   -2.3092    2.1272   -0.4608 H   0  0  0  0  0  0  0  0  0  0  0  0
    6.0605   -0.5225    0.5299 H   0  0  0  0  0  0  0  0  0  0  0  0
    5.8471    0.4777   -0.9114 H   0  0  0  0  0  0  0  0  0  0  0  0
    6.7220    1.1022    0.4705 H   0  0  0  0  0  0  0  0  0  0  0  0
    5.5921    2.0948    2.4238 H   0  0  0  0  0  0  0  0  0  0  0  0
    3.9479    1.5956    2.8312 H   0  0  0  0  0  0  0  0  0  0  0  0
    5.2621    0.4064    2.7780 H   0  0  0  0  0  0  0  0  0  0  0  0
   -6.6393    0.8373    2.0501 H   0  0  0  0  0  0  0  0  0  0  0  0
   -6.0010   -0.7864    1.7828 H   0  0  0  0  0  0  0  0  0  0  0  0
   -5.2458    0.2862    2.9742 H   0  0  0  0  0  0  0  0  0  0  0  0
   -3.7497    2.2198    2.2213 H   0  0  0  0  0  0  0  0  0  0  0  0
   -3.8897    2.8077    0.5587 H   0  0  0  0  0  0  0  0  0  0  0  0
   -5.2830    2.8056    1.6084 H   0  0  0  0  0  0  0  0  0  0  0  0
    5.9182    2.9827   -0.5745 H   0  0  0  0  0  0  0  0  0  0  0  0
   -7.1009    1.7789   -1.2576 H   0  0  0  0  0  0  0  0  0  0  0  0
  1 18  1  0  0  0  0
  1 81  1  0  0  0  0
  2 25  1  0  0  0  0
  2 82  1  0  0  0  0
  3  4  1  0  0  0  0
  3  6  1  0  0  0  0
  3 13  1  0  0  0  0
  3 20  1  0  0  0  0
  4  5  1  0  0  0  0
  4 12  1  0  0  0  0
  4 33  1  0  0  0  0
  5 10  1  0  0  0  0
  5 14  1  0  0  0  0
  5 23  1  0  0  0  0
  6  8  1  0  0  0  0
  6 11  1  0  0  0  0
  6 34  1  0  0  0  0
  7  9  1  0  0  0  0
  7 15  1  0  0  0  0
  7 22  1  0  0  0  0
  7 28  1  0  0  0  0
  8 18  1  0  0  0  0
  8 29  1  0  0  0  0
  8 30  1  0  0  0  0
  9 16  1  0  0  0  0
  9 17  1  0  0  0  0
  9 35  1  0  0  0  0
 10 11  1  0  0  0  0
 10 36  1  0  0  0  0
 10 37  1  0  0  0  0
 11 38  1  0  0  0  0
 11 39  1  0  0  0  0
 12 16  1  0  0  0  0
 12 40  1  0  0  0  0
 12 41  1  0  0  0  0
 13 19  1  0  0  0  0
 13 42  1  0  0  0  0
 13 43  1  0  0  0  0
 14 17  1  0  0  0  0
 14 44  1  0  0  0  0
 14 45  1  0  0  0  0
 15 21  1  0  0  0  0
 15 24  1  0  0  0  0
 15 46  1  0  0  0  0
 16 47  1  0  0  0  0
 16 48  1  0  0  0  0
 17 26  2  0  0  0  0
 18 19  1  0  0  0  0
 18 49  1  0  0  0  0
 19 50  1  0  0  0  0
 19 51  1  0  0  0  0
 20 52  1  0  0  0  0
 20 53  1  0  0  0  0
 20 54  1  0  0  0  0
 21 25  1  0  0  0  0
 21 31  1  0  0  0  0
 21 32  1  0  0  0  0
 22 27  1  0  0  0  0
 22 55  1  0  0  0  0
 22 56  1  0  0  0  0
 23 57  1  0  0  0  0
 23 58  1  0  0  0  0
 23 59  1  0  0  0  0
 24 26  1  0  0  0  0
 24 60  1  0  0  0  0
 24 61  1  0  0  0  0
 25 27  1  0  0  0  0
 25 62  1  0  0  0  0
 26 63  1  0  0  0  0
 27 64  1  0  0  0  0
 27 65  1  0  0  0  0
 28 66  1  0  0  0  0
 28 67  1  0  0  0  0
 28 68  1  0  0  0  0
 29 69  1  0  0  0  0
 29 70  1  0  0  0  0
 29 71  1  0  0  0  0
 30 72  1  0  0  0  0
 30 73  1  0  0  0  0
 30 74  1  0  0  0  0
 31 75  1  0  0  0  0
 31 76  1  0  0  0  0
 31 77  1  0  0  0  0
 32 78  1  0  0  0  0
 32 79  1  0  0  0  0
 32 80  1  0  0  0  0
M  END
> <PUBCHEM_COMPOUND_CID>
164947

> <PUBCHEM_CONFORMER_RMSD>
0.8

> <PUBCHEM_CONFORMER_DIVERSEORDER>
1
2

> <PUBCHEM_MMFF94_PARTIAL_CHARGES>
12
1 -0.68
14 0.14
17 -0.28
18 0.28
2 -0.68
24 0.14
25 0.28
26 -0.29
63 0.15
81 0.4
82 0.4
9 0.14

> <PUBCHEM_EFFECTIVE_ROTOR_COUNT>
2.8

> <PUBCHEM_PHARMACOPHORE_FEATURES>
11
1 1 acceptor
1 1 donor
1 2 acceptor
1 2 donor
3 21 31 32 hydrophobe
3 8 29 30 hydrophobe
6 3 4 5 6 10 11 rings
6 3 6 8 13 18 19 rings
6 7 15 21 22 25 27 rings
6 7 9 15 17 24 26 rings
7 4 5 9 12 14 16 17 rings

> <PUBCHEM_HEAVY_ATOM_COUNT>
32

> <PUBCHEM_ATOM_DEF_STEREO_COUNT>
9

> <PUBCHEM_ATOM_UDEF_STEREO_COUNT>
0

> <PUBCHEM_BOND_DEF_STEREO_COUNT>
0

> <PUBCHEM_BOND_UDEF_STEREO_COUNT>
0

> <PUBCHEM_ISOTOPIC_ATOM_COUNT>
0

> <PUBCHEM_COMPONENT_COUNT>
1

> <PUBCHEM_CACTVS_TAUTO_COUNT>
1

> <PUBCHEM_CONFORMER_ID>
0002845300000001

> <PUBCHEM_MMFF94_ENERGY>
150.7323

> <PUBCHEM_FEATURE_SELFOVERLAP>
55.868

> <PUBCHEM_SHAPE_FINGERPRINT>
10074138 170 17314237846300471043
10319926 262 16732702735801161883
10498660 4 16845577534240737930
10622 236 11964260539099336345
10674148 151 17896334661760550876
11112241 14 18335421279505103769
11135609 12 15719664369657069010
11135609 201 18268995473527738233
11640471 11 18272079530893313470
11961588 58 17346307228442498299
12107698 1 18127412246035084830
12422481 6 17240755185965071596
12633257 1 17385445453013608882
12788726 201 16630251294808312203
12925494 130 17534049784585749269
13103583 49 13839982192648734341
13224815 77 18341896294162920975
13544653 18 10809336754702562734
13583140 156 17967247607267079511
13690498 29 14907031929858997757
14251764 30 12396841278645489800
14251764 38 18192147101602299989
144659 39 17821725078361713833
14705955 166 16588292844276405741
14840074 17 18059858363895414537
14931854 50 12031516527151059208
15163728 17 18200880677053731958
15183329 4 12103567459863152123
15238133 3 17821733827610768956
15664445 248 14764046987405701130
17349148 13 15430337801971924187
19377110 9 18412261774930720711
20511986 3 17988062431959994749
20715895 44 18189046517439881393
20764821 26 18196360644507564352
20775438 99 10302655356541658724
21033648 29 17458626653978671709
21033650 10 15051472499665833354
21223535 225 18057615252199299332
21756936 100 18195812001833315932
21792934 111 16660933180647854513
21859007 373 16082473476927515093
22122407 14 18266466400028260753
22149856 69 18118152246192128083
22393880 68 14261354652274155290
23559900 14 17387147389929952287
23569914 152 10157484543520109865
2838139 119 17847057783447816560
3004659 81 12895351079675128282
3459 110 17458908244487092947
392239 28 17676492726885781681
4340502 62 18113900446821134743
469060 322 18123756619366396523
474 4 18411417310622923766
474113 269 13912594001298934051
495365 180 18187650141778039235
5081480 168 18055650416630911366
513532 50 18201160962466972398
57724786 102 18342463594944528488
6004065 56 18188205516184331677
6034566 193 18266461082119678693
633830 44 18272093777078061095
7970288 3 8430330038416875912

> <PUBCHEM_SHAPE_MULTIPOLES>
646.81
13.4
3.04
2.15
6.55
0.22
0.13
-10.98
2.81
-2.85
0.03
0.53
0.07
0.18

> <PUBCHEM_SHAPE_SELFOVERLAP>
1360.131

> <PUBCHEM_SHAPE_VOLUME>
358.6

> <PUBCHEM_COORDINATE_TYPE>
2
5
10

$$$$
