57342090
  -OEChem-09082015423D

 44 47  0     1  0  0  0  0  0999 V2000
   -0.4432   -3.1898    0.1750 O   0  0  0  0  0  0  0  0  0  0  0  0
   -0.0419    1.9153    1.4442 O   0  0  0  0  0  0  0  0  0  0  0  0
    2.3521   -2.7806   -0.3683 O   0  0  0  0  0  0  0  0  0  0  0  0
   -3.0030    0.1775   -0.5459 N   0  0  1  0  0  0  0  0  0  0  0  0
   -0.7952   -0.7603    0.1455 C   0  0  2  0  0  0  0  0  0  0  0  0
    0.2455    0.3171   -0.4010 C   0  0  1  0  0  0  0  0  0  0  0  0
   -2.0575   -0.9189   -0.7252 C   0  0  0  0  0  0  0  0  0  0  0  0
    1.5355   -0.5030   -0.5283 C   0  0  0  0  0  0  0  0  0  0  0  0
   -1.2351   -0.6852    1.6338 C   0  0  0  0  0  0  0  0  0  0  0  0
   -0.1234    0.8539   -1.8141 C   0  0  0  0  0  0  0  0  0  0  0  0
   -0.0007   -2.0603    0.0138 C   0  0  0  0  0  0  0  0  0  0  0  0
    0.6506    1.5005    0.5169 C   0  0  0  0  0  0  0  0  0  0  0  0
    2.8320    0.1660   -0.8807 C   0  0  0  0  0  0  0  0  0  0  0  0
   -2.4673    0.1916    1.9100 C   0  0  0  0  0  0  0  0  0  0  0  0
   -1.4520    1.6119   -1.9827 C   0  0  0  0  0  0  0  0  0  0  0  0
    1.4010   -1.8120   -0.3088 C   0  0  0  0  0  0  0  0  0  0  0  0
   -3.5436    0.1166    0.8204 C   0  0  0  0  0  0  0  0  0  0  0  0
   -2.4837    1.5119   -0.8592 C   0  0  0  0  0  0  0  0  0  0  0  0
    3.1373    1.3087    0.0912 C   0  0  1  0  0  0  0  0  0  0  0  0
    1.9378    2.2500    0.1917 C   0  0  0  0  0  0  0  0  0  0  0  0
    3.5548    0.7891    1.4717 C   0  0  0  0  0  0  0  0  0  0  0  0
   -1.8210   -1.0590   -1.7861 H   0  0  0  0  0  0  0  0  0  0  0  0
   -2.5696   -1.8600   -0.4736 H   0  0  0  0  0  0  0  0  0  0  0  0
   -1.5070   -1.6959    1.9723 H   0  0  0  0  0  0  0  0  0  0  0  0
   -0.4022   -0.3984    2.2861 H   0  0  0  0  0  0  0  0  0  0  0  0
   -0.1158    0.0198   -2.5306 H   0  0  0  0  0  0  0  0  0  0  0  0
    0.6636    1.5181   -2.1936 H   0  0  0  0  0  0  0  0  0  0  0  0
    3.6640   -0.5485   -0.8846 H   0  0  0  0  0  0  0  0  0  0  0  0
    2.7667    0.5593   -1.9022 H   0  0  0  0  0  0  0  0  0  0  0  0
   -2.9087   -0.1107    2.8681 H   0  0  0  0  0  0  0  0  0  0  0  0
   -2.1725    1.2336    2.0532 H   0  0  0  0  0  0  0  0  0  0  0  0
   -1.2152    2.6767   -2.1115 H   0  0  0  0  0  0  0  0  0  0  0  0
   -1.9140    1.3032   -2.9296 H   0  0  0  0  0  0  0  0  0  0  0  0
   -4.1032   -0.8208    0.9372 H   0  0  0  0  0  0  0  0  0  0  0  0
   -4.2817    0.9141    0.9720 H   0  0  0  0  0  0  0  0  0  0  0  0
   -2.0660    2.0108    0.0180 H   0  0  0  0  0  0  0  0  0  0  0  0
   -3.3445    2.1300   -1.1464 H   0  0  0  0  0  0  0  0  0  0  0  0
    3.9863    1.8784   -0.3082 H   0  0  0  0  0  0  0  0  0  0  0  0
    1.7909    2.7971   -0.7454 H   0  0  0  0  0  0  0  0  0  0  0  0
    2.1131    3.0017    0.9706 H   0  0  0  0  0  0  0  0  0  0  0  0
    4.4279    0.1332    1.3885 H   0  0  0  0  0  0  0  0  0  0  0  0
    3.8270    1.6221    2.1289 H   0  0  0  0  0  0  0  0  0  0  0  0
    2.7554    0.2248    1.9627 H   0  0  0  0  0  0  0  0  0  0  0  0
    1.9172   -3.6249   -0.1572 H   0  0  0  0  0  0  0  0  0  0  0  0
  1 11  2  0  0  0  0
  2 12  2  0  0  0  0
  3 16  1  0  0  0  0
  3 44  1  0  0  0  0
  4  7  1  0  0  0  0
  4 17  1  0  0  0  0
  4 18  1  0  0  0  0
  5  6  1  0  0  0  0
  5  7  1  0  0  0  0
  5  9  1  0  0  0  0
  5 11  1  0  0  0  0
  6  8  1  0  0  0  0
  6 10  1  0  0  0  0
  6 12  1  0  0  0  0
  7 22  1  0  0  0  0
  7 23  1  0  0  0  0
  8 13  1  0  0  0  0
  8 16  2  0  0  0  0
  9 14  1  0  0  0  0
  9 24  1  0  0  0  0
  9 25  1  0  0  0  0
 10 15  1  0  0  0  0
 10 26  1  0  0  0  0
 10 27  1  0  0  0  0
 11 16  1  0  0  0  0
 12 20  1  0  0  0  0
 13 19  1  0  0  0  0
 13 28  1  0  0  0  0
 13 29  1  0  0  0  0
 14 17  1  0  0  0  0
 14 30  1  0  0  0  0
 14 31  1  0  0  0  0
 15 18  1  0  0  0  0
 15 32  1  0  0  0  0
 15 33  1  0  0  0  0
 17 34  1  0  0  0  0
 17 35  1  0  0  0  0
 18 36  1  0  0  0  0
 18 37  1  0  0  0  0
 19 20  1  0  0  0  0
 19 21  1  0  0  0  0
 19 38  1  0  0  0  0
 20 39  1  0  0  0  0
 20 40  1  0  0  0  0
 21 41  1  0  0  0  0
 21 42  1  0  0  0  0
 21 43  1  0  0  0  0
M  END
> <PUBCHEM_COMPOUND_CID>
57342090

> <PUBCHEM_CONFORMER_RMSD>
0.6

> <PUBCHEM_CONFORMER_DIVERSEORDER>
1
2
3

> <PUBCHEM_MMFF94_PARTIAL_CHARGES>
16
1 -0.57
11 0.49
12 0.45
13 0.14
16 0.09
17 0.27
18 0.27
2 -0.57
20 0.06
3 -0.53
4 -0.81
44 0.45
5 0.06
6 0.2
7 0.27
8 -0.28

> <PUBCHEM_EFFECTIVE_ROTOR_COUNT>
2

> <PUBCHEM_PHARMACOPHORE_FEATURES>
8
1 1 acceptor
1 2 acceptor
1 3 donor
1 4 cation
5 5 6 8 11 16 rings
6 4 5 7 9 14 17 rings
6 6 8 12 13 19 20 rings
7 4 5 6 7 10 15 18 rings

> <PUBCHEM_HEAVY_ATOM_COUNT>
21

> <PUBCHEM_ATOM_DEF_STEREO_COUNT>
3

> <PUBCHEM_ATOM_UDEF_STEREO_COUNT>
0

> <PUBCHEM_BOND_DEF_STEREO_COUNT>
0

> <PUBCHEM_BOND_UDEF_STEREO_COUNT>
0

> <PUBCHEM_ISOTOPIC_ATOM_COUNT>
0

> <PUBCHEM_COMPONENT_COUNT>
1

> <PUBCHEM_CACTVS_TAUTO_COUNT>
30

> <PUBCHEM_CONFORMER_ID>
036AF88A00000001

> <PUBCHEM_MMFF94_ENERGY>
63.7172

> <PUBCHEM_FEATURE_SELFOVERLAP>
41.137

> <PUBCHEM_SHAPE_FINGERPRINT>
10064457 181 18124625156147437259
10165383 225 18265918992944051540
10863032 1 17847066592562649983
10948715 1 16486711194131742369
12403814 3 17968651752172040180
12423570 1 9437104414261338732
12491281 212 16486713431661945600
13027679 85 17689160006658862844
13140716 1 18122344837676936472
13172582 1 18115314521363072437
144361 1 18116141345733483641
14787075 74 17127312150377642467
14817 1 14087593027014520277
15309172 13 18410011082479827264
15881359 60 18260831518050049769
16945 1 18336270136176528796
18186145 218 18272939314425542204
18219364 16 18339644545883692112
19049666 15 18115589214723598709
20510252 161 17551516969336816970
20691752 17 16734387089221238869
22344851 341 17825655669274684569
22802520 49 17824549569399172181
23236772 104 17418379107757729377
2334 1 17616254019141125302
23419403 2 18118686513082515901
23493267 7 17313683584928238174
23559900 14 17313953996053792470
238 59 18121745457716121485
25 1 18342460356518179164
2748010 2 18188769422997282750
4340502 62 18201446925884882827
474 4 18130794515527118848
568465 68 18336277824183981961
6992083 37 17900260007009971197
77492 1 17203609246630471407
81228 2 17760085520374752610

> <PUBCHEM_SHAPE_MULTIPOLES>
409.58
4.79
2.63
1.66
0.63
1.57
-0.18
-1.2
-1.08
0.81
0.31
-0.59
-0.63
0.81

> <PUBCHEM_SHAPE_SELFOVERLAP>
892.648

> <PUBCHEM_SHAPE_VOLUME>
217.1

> <PUBCHEM_COORDINATE_TYPE>
2
5
10

$$$$
