102292237
  -OEChem-09082015513D

 44 48  0     1  0  0  0  0  0999 V2000
   -3.1011   -0.5581    0.8091 O   0  0  0  0  0  0  0  0  0  0  0  0
    0.2747   -1.6427    1.8776 O   0  0  0  0  0  0  0  0  0  0  0  0
    1.5656   -3.1087   -0.0373 O   0  0  0  0  0  0  0  0  0  0  0  0
    0.5097    1.5661    1.7560 O   0  0  0  0  0  0  0  0  0  0  0  0
   -3.2217   -0.1166   -0.5962 N   0  0  2  0  0  0  0  0  0  0  0  0
   -0.9402   -0.4043    0.1535 C   0  0  1  0  0  0  0  0  0  0  0  0
    0.3139    0.3639   -0.3547 C   0  0  1  0  0  0  0  0  0  0  0  0
   -1.8829   -0.5436   -1.0781 C   0  0  2  0  0  0  0  0  0  0  0  0
    1.3338   -0.7503   -0.7910 C   0  0  2  0  0  0  0  0  0  0  0  0
   -0.3761   -1.7661    0.6156 C   0  0  1  0  0  0  0  0  0  0  0  0
   -1.9220    0.1935    1.1693 C   0  0  1  0  0  0  0  0  0  0  0  0
   -0.1961    1.1534   -1.5725 C   0  0  0  0  0  0  0  0  0  0  0  0
    0.6682   -2.0948   -0.4466 C   0  0  2  0  0  0  0  0  0  0  0  0
   -1.2401    0.2472   -2.2221 C   0  0  0  0  0  0  0  0  0  0  0  0
    0.9942    1.2889    0.6599 C   0  0  0  0  0  0  0  0  0  0  0  0
    2.7449   -0.5608   -0.2132 C   0  0  0  0  0  0  0  0  0  0  0  0
   -2.4375    1.5877    0.8540 C   0  0  0  0  0  0  0  0  0  0  0  0
   -3.3159    1.3354   -0.3628 C   0  0  0  0  0  0  0  0  0  0  0  0
    3.2258    0.8757   -0.4551 C   0  0  1  0  0  0  0  0  0  0  0  0
    2.3223    1.8937    0.2506 C   0  0  0  0  0  0  0  0  0  0  0  0
    4.6803    1.0406   -0.0163 C   0  0  0  0  0  0  0  0  0  0  0  0
   -1.9941   -1.5882   -1.3934 H   0  0  0  0  0  0  0  0  0  0  0  0
    1.4570   -0.7301   -1.8832 H   0  0  0  0  0  0  0  0  0  0  0  0
   -1.1278   -2.5587    0.6939 H   0  0  0  0  0  0  0  0  0  0  0  0
   -1.6709    0.0538    2.2224 H   0  0  0  0  0  0  0  0  0  0  0  0
    0.6044    1.3992   -2.2792 H   0  0  0  0  0  0  0  0  0  0  0  0
   -0.6420    2.1073   -1.2752 H   0  0  0  0  0  0  0  0  0  0  0  0
    0.1635   -2.4650   -1.3475 H   0  0  0  0  0  0  0  0  0  0  0  0
   -1.9575    0.8036   -2.8329 H   0  0  0  0  0  0  0  0  0  0  0  0
   -0.7400   -0.4531   -2.9028 H   0  0  0  0  0  0  0  0  0  0  0  0
    2.7615   -0.7896    0.8601 H   0  0  0  0  0  0  0  0  0  0  0  0
    3.4306   -1.2682   -0.6961 H   0  0  0  0  0  0  0  0  0  0  0  0
   -1.6592    2.3314    0.6822 H   0  0  0  0  0  0  0  0  0  0  0  0
   -3.0643    1.9466    1.6796 H   0  0  0  0  0  0  0  0  0  0  0  0
   -3.0350    1.9422   -1.2275 H   0  0  0  0  0  0  0  0  0  0  0  0
   -4.3568    1.5938   -0.1338 H   0  0  0  0  0  0  0  0  0  0  0  0
    3.1859    1.0742   -1.5347 H   0  0  0  0  0  0  0  0  0  0  0  0
    2.1301    2.7542   -0.3992 H   0  0  0  0  0  0  0  0  0  0  0  0
    2.8030    2.2737    1.1602 H   0  0  0  0  0  0  0  0  0  0  0  0
   -0.4127   -1.6398    2.5644 H   0  0  0  0  0  0  0  0  0  0  0  0
    1.0355   -3.8817    0.2214 H   0  0  0  0  0  0  0  0  0  0  0  0
    5.0292    2.0611   -0.2066 H   0  0  0  0  0  0  0  0  0  0  0  0
    5.3324    0.3554   -0.5682 H   0  0  0  0  0  0  0  0  0  0  0  0
    4.8000    0.8331    1.0526 H   0  0  0  0  0  0  0  0  0  0  0  0
  1  5  1  0  0  0  0
  1 11  1  0  0  0  0
  2 10  1  0  0  0  0
  2 40  1  0  0  0  0
  3 13  1  0  0  0  0
  3 41  1  0  0  0  0
  4 15  2  0  0  0  0
  5  8  1  0  0  0  0
  5 18  1  0  0  0  0
  6  7  1  0  0  0  0
  6  8  1  0  0  0  0
  6 10  1  0  0  0  0
  6 11  1  0  0  0  0
  7  9  1  0  0  0  0
  7 12  1  0  0  0  0
  7 15  1  0  0  0  0
  8 14  1  0  0  0  0
  8 22  1  0  0  0  0
  9 13  1  0  0  0  0
  9 16  1  0  0  0  0
  9 23  1  0  0  0  0
 10 13  1  0  0  0  0
 10 24  1  0  0  0  0
 11 17  1  0  0  0  0
 11 25  1  0  0  0  0
 12 14  1  0  0  0  0
 12 26  1  0  0  0  0
 12 27  1  0  0  0  0
 13 28  1  0  0  0  0
 14 29  1  0  0  0  0
 14 30  1  0  0  0  0
 15 20  1  0  0  0  0
 16 19  1  0  0  0  0
 16 31  1  0  0  0  0
 16 32  1  0  0  0  0
 17 18  1  0  0  0  0
 17 33  1  0  0  0  0
 17 34  1  0  0  0  0
 18 35  1  0  0  0  0
 18 36  1  0  0  0  0
 19 20  1  0  0  0  0
 19 21  1  0  0  0  0
 19 37  1  0  0  0  0
 20 38  1  0  0  0  0
 20 39  1  0  0  0  0
 21 42  1  0  0  0  0
 21 43  1  0  0  0  0
 21 44  1  0  0  0  0
M  END
> <PUBCHEM_COMPOUND_CID>
102292237

> <PUBCHEM_CONFORMER_RMSD>
0.6

> <PUBCHEM_CONFORMER_DIVERSEORDER>
1
4
5
3
2

> <PUBCHEM_MMFF94_PARTIAL_CHARGES>
15
1 -0.18
10 0.28
11 0.28
13 0.28
15 0.45
18 0.27
2 -0.68
20 0.06
3 -0.68
4 -0.57
40 0.4
41 0.4
5 -0.64
7 0.06
8 0.27

> <PUBCHEM_EFFECTIVE_ROTOR_COUNT>
2

> <PUBCHEM_PHARMACOPHORE_FEATURES>
9
1 2 acceptor
1 2 donor
1 3 acceptor
1 3 donor
1 4 acceptor
5 6 7 8 12 14 rings
5 6 7 9 10 13 rings
6 7 9 15 16 19 20 rings
7 1 5 6 8 11 17 18 rings

> <PUBCHEM_HEAVY_ATOM_COUNT>
21

> <PUBCHEM_ATOM_DEF_STEREO_COUNT>
8

> <PUBCHEM_ATOM_UDEF_STEREO_COUNT>
0

> <PUBCHEM_BOND_DEF_STEREO_COUNT>
0

> <PUBCHEM_BOND_UDEF_STEREO_COUNT>
0

> <PUBCHEM_ISOTOPIC_ATOM_COUNT>
0

> <PUBCHEM_COMPONENT_COUNT>
1

> <PUBCHEM_CACTVS_TAUTO_COUNT>
2

> <PUBCHEM_CONFORMER_ID>
0618DB0D00000001

> <PUBCHEM_MMFF94_ENERGY>
95.0104

> <PUBCHEM_FEATURE_SELFOVERLAP>
46.538

> <PUBCHEM_SHAPE_FINGERPRINT>
10863032 1 18341055107944072209
10948715 1 18409167735602278372
11578080 2 17679302966525940125
12173636 292 18194969762551284588
12403814 3 17458901664839931580
12423570 1 17604166902964591487
12491281 212 17775016664719689633
12808571 1 18273213097057809926
13024252 1 13479397410043367549
13132413 78 18201165351464800808
13172582 1 17677054658340993180
13464514 151 18267307530027184993
14178342 30 17676785196962692465
144361 1 18042392706964591815
14787075 74 18128823134375842555
14817 1 15313984452671769487
15209289 33 18271809081091889596
15309172 13 18334293214470293100
16945 1 18339655459495661967
18186145 218 18339934735691853268
20691752 17 16733273335365760691
22112679 90 17273676707315759318
23419403 2 14566142462222876619
23493267 7 16661190473708351820
238 59 17974531832814243573
25 1 18411982442467197692
2748010 2 18123480628793332170
296302 2 17603589646733751884
298252 57 17274827951692720885
3286 77 18410007753906455790
34934 24 17917711249465779896
4340502 62 18260840267652786577
474 4 18411704296127279044
528886 8 18060133254238321790
568465 68 18264511613591094186
63268167 104 18271527502877760233
7364860 26 18267868276498736247
81228 2 17396685958148316666
9981440 41 15977186764292000688

> <PUBCHEM_SHAPE_MULTIPOLES>
403.71
5.29
2.25
1.53
2.56
1.19
0.18
-2.27
0.13
0.85
-0.44
-0.64
-0.13
0.08

> <PUBCHEM_SHAPE_SELFOVERLAP>
900.952

> <PUBCHEM_SHAPE_VOLUME>
219.3

> <PUBCHEM_COORDINATE_TYPE>
2
5
10

$$$$
