101289809
  -OEChem-09082015103D

 49 52  0     1  0  0  0  0  0999 V2000
   -3.7630   -0.2560    1.2236 O   0  0  0  0  0  0  0  0  0  0  0  0
    2.2607   -1.1168   -0.0890 N   0  0  1  0  0  0  0  0  0  0  0  0
   -2.4969   -0.3284   -0.7328 N   0  0  0  0  0  0  0  0  0  0  0  0
    1.2441   -0.0234   -0.0757 C   0  0  1  0  0  0  0  0  0  0  0  0
    1.0865    0.5117    1.3877 C   0  0  1  0  0  0  0  0  0  0  0  0
   -0.0260    1.5674    1.4199 C   0  0  1  0  0  0  0  0  0  0  0  0
    1.7804    1.2004   -0.8980 C   0  0  0  0  0  0  0  0  0  0  0  0
   -0.1053   -0.4446   -0.7013 C   0  0  0  0  0  0  0  0  0  0  0  0
    0.8389    2.4249   -0.8622 C   0  0  1  0  0  0  0  0  0  0  0  0
    0.4011    2.7783    0.5665 C   0  0  0  0  0  0  0  0  0  0  0  0
    0.8590   -0.5866    2.4335 C   0  0  0  0  0  0  0  0  0  0  0  0
   -1.3657    0.9542    0.9735 C   0  0  0  0  0  0  0  0  0  0  0  0
    2.0485   -2.1617    0.9287 C   0  0  0  0  0  0  0  0  0  0  0  0
   -1.2798   -0.0046   -0.1925 C   0  0  0  0  0  0  0  0  0  0  0  0
    1.9827   -1.6007    2.3408 C   0  0  0  0  0  0  0  0  0  0  0  0
    2.4183   -1.7364   -1.4147 C   0  0  0  0  0  0  0  0  0  0  0  0
    0.0014   -1.2460   -1.9879 C   0  0  0  0  0  0  0  0  0  0  0  0
    1.1090   -2.2942   -1.9676 C   0  0  0  0  0  0  0  0  0  0  0  0
    1.5021    3.6295   -1.5332 C   0  0  0  0  0  0  0  0  0  0  0  0
   -3.6571   -0.4323    0.0119 C   0  0  0  0  0  0  0  0  0  0  0  0
   -4.8389   -0.8345   -0.8312 C   0  0  0  0  0  0  0  0  0  0  0  0
    2.0265    1.0083    1.6771 H   0  0  0  0  0  0  0  0  0  0  0  0
   -0.1524    1.9351    2.4473 H   0  0  0  0  0  0  0  0  0  0  0  0
    2.7654    1.4927   -0.5066 H   0  0  0  0  0  0  0  0  0  0  0  0
    1.9417    0.9371   -1.9503 H   0  0  0  0  0  0  0  0  0  0  0  0
   -0.0581    2.1955   -1.4504 H   0  0  0  0  0  0  0  0  0  0  0  0
   -0.4117    3.5146    0.5318 H   0  0  0  0  0  0  0  0  0  0  0  0
    1.2360    3.2741    1.0806 H   0  0  0  0  0  0  0  0  0  0  0  0
   -0.0981   -1.0989    2.2879 H   0  0  0  0  0  0  0  0  0  0  0  0
    0.8382   -0.1511    3.4393 H   0  0  0  0  0  0  0  0  0  0  0  0
   -2.0677    1.7687    0.7534 H   0  0  0  0  0  0  0  0  0  0  0  0
   -1.7431    0.4212    1.8528 H   0  0  0  0  0  0  0  0  0  0  0  0
    2.8794   -2.8774    0.8953 H   0  0  0  0  0  0  0  0  0  0  0  0
    1.1297   -2.7292    0.7391 H   0  0  0  0  0  0  0  0  0  0  0  0
    2.9390   -1.1343    2.6081 H   0  0  0  0  0  0  0  0  0  0  0  0
    1.8105   -2.4126    3.0565 H   0  0  0  0  0  0  0  0  0  0  0  0
    3.1658   -2.5389   -1.3690 H   0  0  0  0  0  0  0  0  0  0  0  0
    2.8385   -1.0113   -2.1205 H   0  0  0  0  0  0  0  0  0  0  0  0
   -0.9303   -1.7626   -2.2369 H   0  0  0  0  0  0  0  0  0  0  0  0
    0.1976   -0.5433   -2.8078 H   0  0  0  0  0  0  0  0  0  0  0  0
    0.7834   -3.1622   -1.3823 H   0  0  0  0  0  0  0  0  0  0  0  0
    1.2750   -2.6634   -2.9869 H   0  0  0  0  0  0  0  0  0  0  0  0
    1.7680    3.3979   -2.5699 H   0  0  0  0  0  0  0  0  0  0  0  0
    2.4159    3.9261   -1.0074 H   0  0  0  0  0  0  0  0  0  0  0  0
    0.8235    4.4889   -1.5450 H   0  0  0  0  0  0  0  0  0  0  0  0
   -2.5165   -0.7005   -1.6772 H   0  0  0  0  0  0  0  0  0  0  0  0
   -4.8040   -1.9122   -1.0123 H   0  0  0  0  0  0  0  0  0  0  0  0
   -4.8285   -0.3041   -1.7878 H   0  0  0  0  0  0  0  0  0  0  0  0
   -5.7652   -0.5849   -0.3063 H   0  0  0  0  0  0  0  0  0  0  0  0
  1 20  2  0  0  0  0
  2  4  1  0  0  0  0
  2 13  1  0  0  0  0
  2 16  1  0  0  0  0
  3 14  1  0  0  0  0
  3 20  1  0  0  0  0
  3 46  1  0  0  0  0
  4  5  1  0  0  0  0
  4  7  1  0  0  0  0
  4  8  1  0  0  0  0
  5  6  1  0  0  0  0
  5 11  1  0  0  0  0
  5 22  1  0  0  0  0
  6 10  1  0  0  0  0
  6 12  1  0  0  0  0
  6 23  1  0  0  0  0
  7  9  1  0  0  0  0
  7 24  1  0  0  0  0
  7 25  1  0  0  0  0
  8 14  2  0  0  0  0
  8 17  1  0  0  0  0
  9 10  1  0  0  0  0
  9 19  1  0  0  0  0
  9 26  1  0  0  0  0
 10 27  1  0  0  0  0
 10 28  1  0  0  0  0
 11 15  1  0  0  0  0
 11 29  1  0  0  0  0
 11 30  1  0  0  0  0
 12 14  1  0  0  0  0
 12 31  1  0  0  0  0
 12 32  1  0  0  0  0
 13 15  1  0  0  0  0
 13 33  1  0  0  0  0
 13 34  1  0  0  0  0
 15 35  1  0  0  0  0
 15 36  1  0  0  0  0
 16 18  1  0  0  0  0
 16 37  1  0  0  0  0
 16 38  1  0  0  0  0
 17 18  1  0  0  0  0
 17 39  1  0  0  0  0
 17 40  1  0  0  0  0
 18 41  1  0  0  0  0
 18 42  1  0  0  0  0
 19 43  1  0  0  0  0
 19 44  1  0  0  0  0
 19 45  1  0  0  0  0
 20 21  1  0  0  0  0
 21 47  1  0  0  0  0
 21 48  1  0  0  0  0
 21 49  1  0  0  0  0
M  END
> <PUBCHEM_COMPOUND_CID>
101289809

> <PUBCHEM_CONFORMER_RMSD>
0.6

> <PUBCHEM_CONFORMER_DIVERSEORDER>
1
3
2

> <PUBCHEM_MMFF94_PARTIAL_CHARGES>
13
1 -0.57
12 0.14
13 0.27
14 -0.03
16 0.27
17 0.14
2 -0.81
20 0.57
21 0.06
3 -0.54
4 0.41
46 0.37
8 -0.28

> <PUBCHEM_EFFECTIVE_ROTOR_COUNT>
4

> <PUBCHEM_PHARMACOPHORE_FEATURES>
7
1 1 acceptor
1 2 cation
1 3 donor
6 2 4 5 11 13 15 rings
6 2 4 8 16 17 18 rings
6 4 5 6 7 9 10 rings
6 4 5 6 8 12 14 rings

> <PUBCHEM_HEAVY_ATOM_COUNT>
21

> <PUBCHEM_ATOM_DEF_STEREO_COUNT>
4

> <PUBCHEM_ATOM_UDEF_STEREO_COUNT>
0

> <PUBCHEM_BOND_DEF_STEREO_COUNT>
0

> <PUBCHEM_BOND_UDEF_STEREO_COUNT>
0

> <PUBCHEM_ISOTOPIC_ATOM_COUNT>
0

> <PUBCHEM_COMPONENT_COUNT>
1

> <PUBCHEM_CACTVS_TAUTO_COUNT>
8

> <PUBCHEM_CONFORMER_ID>
06098F5100000001

> <PUBCHEM_MMFF94_ENERGY>
51.144

> <PUBCHEM_FEATURE_SELFOVERLAP>
37.172

> <PUBCHEM_SHAPE_FINGERPRINT>
10764073 3 15073066933779128080
10863032 1 17485945038051161776
10948715 1 17609218209717310932
11244481 83 17968640697084170669
11578080 2 16734365137374435604
13681431 1 18410015420497114053
14004458 79 17755854221473339268
14142880 1 9114006905280181306
14181834 199 18055038151630758309
14817 1 10187771166368449824
14863182 85 17561361816026627383
14955137 171 18199742712583469224
15163728 17 17024614384347145005
16945 1 18263379125315383796
17357779 13 17771892840832611341
17492 54 18267042681243002028
1813 80 18340494348250093583
20559304 39 17775284993313132007
20600515 1 18265040358604434979
20645477 70 18339079406314562383
21330990 113 17560784534194535418
21452121 199 18271527502930436295
21524375 3 17832422373064927893
22112679 90 17828213098935039544
23419403 2 17905845332858656280
23559900 14 18202002153503092583
238 59 18118136980902359081
2748010 2 16913111548737942142
298252 57 17839473515427186244
3052486 1 17467898680812123077
3060560 45 17984137334299463653
394222 165 18193554695133241553
4175511 376 18042135391337150648
430814 3 17831010591439213132
54040823 5 18334860523689165946
5845 1 17699532945257829444
6786 2 17391368663986709076
81228 2 17836646318913401449
9981440 41 16687944134608068056

> <PUBCHEM_SHAPE_MULTIPOLES>
416.34
4.75
3.14
2.28
8.72
2.53
-0.53
-2.34
0.29
-2.6
1.25
-1.18
-0.76
-0.8

> <PUBCHEM_SHAPE_SELFOVERLAP>
888.914

> <PUBCHEM_SHAPE_VOLUME>
226.8

> <PUBCHEM_COORDINATE_TYPE>
2
5
10

$$$$
