10940088
  -OEChem-11232017073D

 64 66  0     1  0  0  0  0  0999 V2000
    3.0434   -0.5585    0.3636 O   0  0  0  0  0  0  0  0  0  0  0  0
    4.9603   -3.0462   -1.5206 O   0  0  0  0  0  0  0  0  0  0  0  0
    3.3043    1.7401    0.6672 O   0  0  0  0  0  0  0  0  0  0  0  0
    6.8815   -0.9388   -1.0477 O   0  0  0  0  0  0  0  0  0  0  0  0
    5.5511    1.6900   -1.0526 O   0  0  0  0  0  0  0  0  0  0  0  0
    1.1598   -2.7851   -0.1207 O   0  0  0  0  0  0  0  0  0  0  0  0
    2.3414    1.6602    3.2767 O   0  0  0  0  0  0  0  0  0  0  0  0
    0.8039   -1.5410    1.7935 O   0  0  0  0  0  0  0  0  0  0  0  0
   -2.9627    3.1269   -3.1152 O   0  0  0  0  0  0  0  0  0  0  0  0
   -6.3207    0.6246    1.3959 O   0  0  0  0  0  0  0  0  0  0  0  0
   -7.3812   -1.2138   -0.3978 O   0  0  0  0  0  0  0  0  0  0  0  0
    4.7591   -1.9595   -0.6207 C   0  0  1  0  0  0  0  0  0  0  0  0
    5.4743   -0.7195   -1.1577 C   0  0  1  0  0  0  0  0  0  0  0  0
    3.2586   -1.6985   -0.4701 C   0  0  1  0  0  0  0  0  0  0  0  0
    5.0899    0.5285   -0.3630 C   0  0  2  0  0  0  0  0  0  0  0  0
    3.5740    0.6389   -0.1998 C   0  0  1  0  0  0  0  0  0  0  0  0
    2.5415   -2.8810    0.1737 C   0  0  0  0  0  0  0  0  0  0  0  0
    1.9883    2.0021    0.9332 C   0  0  0  0  0  0  0  0  0  0  0  0
    1.1244    2.3117   -0.1174 C   0  0  0  0  0  0  0  0  0  0  0  0
    1.5080    1.9613    2.2421 C   0  0  0  0  0  0  0  0  0  0  0  0
   -0.2196    2.5809    0.1410 C   0  0  0  0  0  0  0  0  0  0  0  0
    0.4027   -2.0840    0.7763 C   0  0  0  0  0  0  0  0  0  0  0  0
   -1.1431    2.9124   -0.9820 C   0  0  0  0  0  0  0  0  0  0  0  0
    0.1638    2.2302    2.5004 C   0  0  0  0  0  0  0  0  0  0  0  0
   -0.6999    2.5402    1.4499 C   0  0  0  0  0  0  0  0  0  0  0  0
   -1.8082    1.6641   -1.5743 C   0  0  0  0  0  0  0  0  0  0  0  0
   -1.0006   -2.0945    0.3044 C   0  0  0  0  0  0  0  0  0  0  0  0
   -2.7431    1.9802   -2.7284 C   0  0  0  0  0  0  0  0  0  0  0  0
   -1.9438   -1.4680    1.0222 C   0  0  0  0  0  0  0  0  0  0  0  0
   -3.4041    0.7983   -3.3891 C   0  0  0  0  0  0  0  0  0  0  0  0
   -3.3685   -1.3991    0.6528 C   0  0  0  0  0  0  0  0  0  0  0  0
   -4.1845   -0.4101    1.2021 C   0  0  0  0  0  0  0  0  0  0  0  0
   -3.9013   -2.3227   -0.2464 C   0  0  0  0  0  0  0  0  0  0  0  0
   -5.5332   -0.3446    0.8522 C   0  0  0  0  0  0  0  0  0  0  0  0
   -5.2500   -2.2574   -0.5963 C   0  0  0  0  0  0  0  0  0  0  0  0
   -6.0659   -1.2683   -0.0471 C   0  0  0  0  0  0  0  0  0  0  0  0
    5.1943   -2.2485    0.3438 H   0  0  0  0  0  0  0  0  0  0  0  0
    5.2695   -0.5823   -2.2260 H   0  0  0  0  0  0  0  0  0  0  0  0
    2.8031   -1.5078   -1.4519 H   0  0  0  0  0  0  0  0  0  0  0  0
    5.5818    0.5265    0.6170 H   0  0  0  0  0  0  0  0  0  0  0  0
    3.1134    0.8252   -1.1788 H   0  0  0  0  0  0  0  0  0  0  0  0
    2.8788   -3.8280   -0.2594 H   0  0  0  0  0  0  0  0  0  0  0  0
    2.7224   -2.9356    1.2542 H   0  0  0  0  0  0  0  0  0  0  0  0
    4.5657   -2.8051   -2.3760 H   0  0  0  0  0  0  0  0  0  0  0  0
    7.0980   -1.0477   -0.1060 H   0  0  0  0  0  0  0  0  0  0  0  0
    5.1253    1.7109   -1.9266 H   0  0  0  0  0  0  0  0  0  0  0  0
    1.4940    2.3626   -1.1382 H   0  0  0  0  0  0  0  0  0  0  0  0
   -1.9122    3.6157   -0.6358 H   0  0  0  0  0  0  0  0  0  0  0  0
   -0.5962    3.4516   -1.7669 H   0  0  0  0  0  0  0  0  0  0  0  0
   -0.2242    2.2002    3.5151 H   0  0  0  0  0  0  0  0  0  0  0  0
   -1.7458    2.7442    1.6637 H   0  0  0  0  0  0  0  0  0  0  0  0
   -2.3946    1.1545   -0.8034 H   0  0  0  0  0  0  0  0  0  0  0  0
   -1.0441    0.9682   -1.9400 H   0  0  0  0  0  0  0  0  0  0  0  0
   -1.2013   -2.6022   -0.6317 H   0  0  0  0  0  0  0  0  0  0  0  0
    1.8349    1.6775    4.1068 H   0  0  0  0  0  0  0  0  0  0  0  0
   -1.6778   -0.9507    1.9413 H   0  0  0  0  0  0  0  0  0  0  0  0
   -4.0264    0.2734   -2.6603 H   0  0  0  0  0  0  0  0  0  0  0  0
   -4.0364    1.1413   -4.2126 H   0  0  0  0  0  0  0  0  0  0  0  0
   -2.6402    0.1259   -3.7870 H   0  0  0  0  0  0  0  0  0  0  0  0
   -3.7718    0.3137    1.9019 H   0  0  0  0  0  0  0  0  0  0  0  0
   -3.3091   -3.1211   -0.6839 H   0  0  0  0  0  0  0  0  0  0  0  0
   -5.6535   -2.9853   -1.2952 H   0  0  0  0  0  0  0  0  0  0  0  0
   -5.7831    1.1722    1.9935 H   0  0  0  0  0  0  0  0  0  0  0  0
   -7.5705   -1.9292   -1.0289 H   0  0  0  0  0  0  0  0  0  0  0  0
  1 14  1  0  0  0  0
  1 16  1  0  0  0  0
  2 12  1  0  0  0  0
  2 44  1  0  0  0  0
  3 16  1  0  0  0  0
  3 18  1  0  0  0  0
  4 13  1  0  0  0  0
  4 45  1  0  0  0  0
  5 15  1  0  0  0  0
  5 46  1  0  0  0  0
  6 17  1  0  0  0  0
  6 22  1  0  0  0  0
  7 20  1  0  0  0  0
  7 55  1  0  0  0  0
  8 22  2  0  0  0  0
  9 28  2  0  0  0  0
 10 34  1  0  0  0  0
 10 63  1  0  0  0  0
 11 36  1  0  0  0  0
 11 64  1  0  0  0  0
 12 13  1  0  0  0  0
 12 14  1  0  0  0  0
 12 37  1  0  0  0  0
 13 15  1  0  0  0  0
 13 38  1  0  0  0  0
 14 17  1  0  0  0  0
 14 39  1  0  0  0  0
 15 16  1  0  0  0  0
 15 40  1  0  0  0  0
 16 41  1  0  0  0  0
 17 42  1  0  0  0  0
 17 43  1  0  0  0  0
 18 19  1  0  0  0  0
 18 20  2  0  0  0  0
 19 21  2  0  0  0  0
 19 47  1  0  0  0  0
 20 24  1  0  0  0  0
 21 23  1  0  0  0  0
 21 25  1  0  0  0  0
 22 27  1  0  0  0  0
 23 26  1  0  0  0  0
 23 48  1  0  0  0  0
 23 49  1  0  0  0  0
 24 25  2  0  0  0  0
 24 50  1  0  0  0  0
 25 51  1  0  0  0  0
 26 28  1  0  0  0  0
 26 52  1  0  0  0  0
 26 53  1  0  0  0  0
 27 29  2  0  0  0  0
 27 54  1  0  0  0  0
 28 30  1  0  0  0  0
 29 31  1  0  0  0  0
 29 56  1  0  0  0  0
 30 57  1  0  0  0  0
 30 58  1  0  0  0  0
 30 59  1  0  0  0  0
 31 32  2  0  0  0  0
 31 33  1  0  0  0  0
 32 34  1  0  0  0  0
 32 60  1  0  0  0  0
 33 35  2  0  0  0  0
 33 61  1  0  0  0  0
 34 36  2  0  0  0  0
 35 36  1  0  0  0  0
 35 62  1  0  0  0  0
M  END
> <PUBCHEM_COMPOUND_CID>
10940088

> <PUBCHEM_CONFORMER_RMSD>
1.2

> <PUBCHEM_CONFORMER_DIVERSEORDER>
1
8
61
100
178
119
135
92
26
194
121
214
46
134
108
64
117
143
204
47
166
116
54
25
215
155
86
209
181
211
184
95
20
188
62
133
49
90
130
55
16
127
73
105
101
129
150
167
148
58
187
110
160
120
111
112
137
186
185
57
163
198
203
205
125
139
158
159
30
183
87
132
83
190
84
173
138
23
151
175
208
207
172
196
88
27
156
165
199
78
210
98
189
141
123
42
60
45
7
72
147
149
128
35
146
154
192
140
118
41
202
144
97
168
81
38
182
48
66
89
80
106
104
193
85
43
180
53
103
124
171
51
17
176
76
131
102
200
142
126
36
21
19
70
28
63
191
37
174
109
157
69
213
14
29
179
75
65
145
94
32
33
195
152
15
2
113
99
177
212
68
93
4
161
79
153
82
31
9
164
39
71
10
122
34
201
67
162
197
59
77
115
107
18
24
170
136
206
56
12
6
40
52
22
74
3
50
13
114
169
5
91
96
44
11

> <PUBCHEM_MMFF94_PARTIAL_CHARGES>
50
1 -0.56
10 -0.53
11 -0.53
12 0.28
13 0.28
14 0.28
15 0.28
16 0.56
17 0.28
18 0.08
19 -0.15
2 -0.68
20 0.08
21 -0.14
22 0.71
23 0.14
24 -0.15
25 -0.15
26 0.06
27 -0.14
28 0.45
29 -0.18
3 -0.36
30 0.06
31 0.03
32 -0.15
33 -0.15
34 0.08
35 -0.15
36 0.08
4 -0.68
44 0.4
45 0.4
46 0.4
47 0.15
5 -0.68
50 0.15
51 0.15
54 0.15
55 0.45
56 0.15
6 -0.43
60 0.15
61 0.15
62 0.15
63 0.45
64 0.45
7 -0.53
8 -0.57
9 -0.57

> <PUBCHEM_EFFECTIVE_ROTOR_COUNT>
11.2

> <PUBCHEM_PHARMACOPHORE_FEATURES>
16
1 1 acceptor
1 10 donor
1 11 donor
1 2 acceptor
1 2 donor
1 3 acceptor
1 4 acceptor
1 4 donor
1 5 acceptor
1 5 donor
1 7 donor
1 8 acceptor
1 9 acceptor
6 1 12 13 14 15 16 rings
6 18 19 20 21 24 25 rings
6 31 32 33 34 35 36 rings

> <PUBCHEM_HEAVY_ATOM_COUNT>
36

> <PUBCHEM_ATOM_DEF_STEREO_COUNT>
5

> <PUBCHEM_ATOM_UDEF_STEREO_COUNT>
0

> <PUBCHEM_BOND_DEF_STEREO_COUNT>
1

> <PUBCHEM_BOND_UDEF_STEREO_COUNT>
0

> <PUBCHEM_ISOTOPIC_ATOM_COUNT>
0

> <PUBCHEM_COMPONENT_COUNT>
1

> <PUBCHEM_CACTVS_TAUTO_COUNT>
69

> <PUBCHEM_CONFORMER_ID>
00A6EEB800000001

> <PUBCHEM_MMFF94_ENERGY>
98.5346

> <PUBCHEM_FEATURE_SELFOVERLAP>
81.266

> <PUBCHEM_SHAPE_FINGERPRINT>
12788726 201 17095513007530626649
13111901 137 18040985238071689751
13165053 103 17555458332630323238
13402501 40 18408606984640496535
13726171 33 17603578608726551573
14068700 675 17988372507181783184
14681490 219 18342181063411241899
15183329 4 18272096010619498947
15968369 153 17702930462073843865
17852330 162 17967819345588687396
20764821 26 17681235977272147745
221357 26 18411986845209888686
23559900 14 18268429217098429923
46194498 28 17968380164236646372
469060 322 17387154016731563535
5081480 168 18130495388461375703
508706 21 18187350061529945119
513532 50 17417248865813050138
54131252 71 17315334957721913170
550186 83 17604976190815144017
58260988 393 16081088169201182741

> <PUBCHEM_SHAPE_MULTIPOLES>
676.3
14.31
4.17
2.58
4.23
0.35
0.78
-8.01
4.25
-0.75
0.48
1.38
2.47
2.78

> <PUBCHEM_SHAPE_SELFOVERLAP>
1432.615

> <PUBCHEM_SHAPE_VOLUME>
374.1

> <PUBCHEM_COORDINATE_TYPE>
2
5
10

$$$$
