5460544
  -OEChem-11232017213D

 17 16  0     1  0  0  0  0  0999 V2000
   -2.0247    0.4670   -1.4186 O   0  5  0  0  0  0  0  0  0  0  0  0
   -2.4622    1.5120    0.5647 O   0  0  0  0  0  0  0  0  0  0  0  0
    3.2962    1.1228    0.1909 O   0  5  0  0  0  0  0  0  0  0  0  0
    2.8430   -1.0067   -0.4988 O   0  0  0  0  0  0  0  0  0  0  0  0
   -2.1315   -1.7363    0.2872 N   0  0  0  0  0  0  0  0  0  0  0  0
    0.1432   -0.8442    0.1263 C   0  0  0  0  0  0  0  0  0  0  0  0
   -1.2961   -0.5680    0.5760 C   0  0  1  0  0  0  0  0  0  0  0  0
    1.0801    0.3435    0.3507 C   0  0  0  0  0  0  0  0  0  0  0  0
   -1.9986    0.5866   -0.1590 C   0  0  0  0  0  0  0  0  0  0  0  0
    2.5507    0.1233   -0.0193 C   0  0  0  0  0  0  0  0  0  0  0  0
    0.1639   -1.1101   -0.9393 H   0  0  0  0  0  0  0  0  0  0  0  0
    0.5296   -1.7168    0.6694 H   0  0  0  0  0  0  0  0  0  0  0  0
   -1.3114   -0.3826    1.6562 H   0  0  0  0  0  0  0  0  0  0  0  0
    0.7278    1.2052   -0.2291 H   0  0  0  0  0  0  0  0  0  0  0  0
    1.0487    0.6306    1.4092 H   0  0  0  0  0  0  0  0  0  0  0  0
   -2.1557   -1.9146   -0.7160 H   0  0  0  0  0  0  0  0  0  0  0  0
   -3.0922   -1.5617    0.5793 H   0  0  0  0  0  0  0  0  0  0  0  0
  1  9  1  0  0  0  0
  2  9  2  0  0  0  0
  3 10  1  0  0  0  0
  4 10  2  0  0  0  0
  5  7  1  0  0  0  0
  5 16  1  0  0  0  0
  5 17  1  0  0  0  0
  6  7  1  0  0  0  0
  6  8  1  0  0  0  0
  6 11  1  0  0  0  0
  6 12  1  0  0  0  0
  7  9  1  0  0  0  0
  7 13  1  0  0  0  0
  8 10  1  0  0  0  0
  8 14  1  0  0  0  0
  8 15  1  0  0  0  0
M  CHG  2   1  -1   3  -1
M  END
> <PUBCHEM_COMPOUND_CID>
5460544

> <PUBCHEM_CONFORMER_RMSD>
0.6

> <PUBCHEM_CONFORMER_DIVERSEORDER>
2
13
4
8
14
5
6
9
3
1
7
12
10
11

> <PUBCHEM_MMFF94_PARTIAL_CHARGES>
11
1 -0.9
10 0.91
16 0.36
17 0.36
2 -0.9
3 -0.9
4 -0.9
5 -0.99
7 0.16
8 -0.11
9 0.91

> <PUBCHEM_EFFECTIVE_ROTOR_COUNT>
4

> <PUBCHEM_PHARMACOPHORE_FEATURES>
8
1 1 acceptor
1 2 acceptor
1 3 acceptor
1 4 acceptor
1 5 cation
1 5 donor
3 1 2 9 anion
3 3 4 10 anion

> <PUBCHEM_HEAVY_ATOM_COUNT>
10

> <PUBCHEM_ATOM_DEF_STEREO_COUNT>
1

> <PUBCHEM_ATOM_UDEF_STEREO_COUNT>
0

> <PUBCHEM_BOND_DEF_STEREO_COUNT>
0

> <PUBCHEM_BOND_UDEF_STEREO_COUNT>
0

> <PUBCHEM_ISOTOPIC_ATOM_COUNT>
0

> <PUBCHEM_COMPONENT_COUNT>
1

> <PUBCHEM_CACTVS_TAUTO_COUNT>
1

> <PUBCHEM_CONFORMER_ID>
0053524000000002

> <PUBCHEM_MMFF94_ENERGY>
10.8892

> <PUBCHEM_FEATURE_SELFOVERLAP>
40.706

> <PUBCHEM_SHAPE_FINGERPRINT>
12932764 1 17676487220468468258
14325111 11 18411420618000754450
14390081 3 18410291406537054536
15310529 11 17917993901220967758
15775835 57 17748819700713260776
19973954 147 18411141376317620248
20645464 45 18334293162893710186
20653085 51 17988087668892160313
23235685 24 18337669720237528241
23552423 10 18259989283854211474
3248919 1 18341603815822765880
5084963 1 18040998487497229355

> <PUBCHEM_SHAPE_MULTIPOLES>
177.34
4.93
1.4
0.85
2.95
0.16
0.19
-0.92
0.26
-0.61
-0.14
-0.37
-0.09
0.29

> <PUBCHEM_SHAPE_SELFOVERLAP>
338.238

> <PUBCHEM_SHAPE_VOLUME>
108.1

> <PUBCHEM_COORDINATE_TYPE>
2
5
10

$$$$
