6432561
  -OEChem-11202021163D

 42 44  0     1  0  0  0  0  0999 V2000
   -1.9698    0.8522    1.4806 O   0  0  0  0  0  0  0  0  0  0  0  0
    1.1814    0.0028   -0.7547 C   0  0  2  0  0  0  0  0  0  0  0  0
    2.3639    0.5462    0.0053 C   0  0  0  0  0  0  0  0  0  0  0  0
    1.3406    1.4869   -0.5721 C   0  0  2  0  0  0  0  0  0  0  0  0
    0.0880   -0.7285   -0.0334 C   0  0  1  0  0  0  0  0  0  0  0  0
   -1.3117   -0.3149   -0.5421 C   0  0  2  0  0  0  0  0  0  0  0  0
    0.4065    2.2440    0.3154 C   0  0  0  0  0  0  0  0  0  0  0  0
    0.1318   -2.2376   -0.3197 C   0  0  2  0  0  0  0  0  0  0  0  0
   -1.8760    1.0023    0.0595 C   0  0  2  0  0  0  0  0  0  0  0  0
   -2.1909   -1.5558   -0.2535 C   0  0  0  0  0  0  0  0  0  0  0  0
   -1.0177    2.2566   -0.2471 C   0  0  0  0  0  0  0  0  0  0  0  0
    3.6883    0.4853   -0.6799 C   0  0  0  0  0  0  0  0  0  0  0  0
    2.4679    0.3626    1.4817 C   0  0  0  0  0  0  0  0  0  0  0  0
   -1.2518   -2.7012    0.1146 C   0  0  0  0  0  0  0  0  0  0  0  0
    1.2484   -2.9654    0.4150 C   0  0  0  0  0  0  0  0  0  0  0  0
   -3.2989    1.2645   -0.4697 C   0  0  0  0  0  0  0  0  0  0  0  0
    1.3316   -0.3654   -1.7644 H   0  0  0  0  0  0  0  0  0  0  0  0
    1.6015    2.0601   -1.4556 H   0  0  0  0  0  0  0  0  0  0  0  0
    0.1127   -0.5865    1.0497 H   0  0  0  0  0  0  0  0  0  0  0  0
   -1.2655   -0.1910   -1.6345 H   0  0  0  0  0  0  0  0  0  0  0  0
    0.7695    3.2795    0.3497 H   0  0  0  0  0  0  0  0  0  0  0  0
    0.3862    1.9113    1.3541 H   0  0  0  0  0  0  0  0  0  0  0  0
    0.2458   -2.4175   -1.3975 H   0  0  0  0  0  0  0  0  0  0  0  0
   -2.7731   -1.8101   -1.1471 H   0  0  0  0  0  0  0  0  0  0  0  0
   -2.9053   -1.3991    0.5613 H   0  0  0  0  0  0  0  0  0  0  0  0
   -1.5177    3.1266    0.2008 H   0  0  0  0  0  0  0  0  0  0  0  0
   -0.9910    2.4318   -1.3304 H   0  0  0  0  0  0  0  0  0  0  0  0
    4.3561    1.2661   -0.2999 H   0  0  0  0  0  0  0  0  0  0  0  0
    3.6051    0.6236   -1.7638 H   0  0  0  0  0  0  0  0  0  0  0  0
    4.1664   -0.4853   -0.5089 H   0  0  0  0  0  0  0  0  0  0  0  0
    3.1123    1.1415    1.9062 H   0  0  0  0  0  0  0  0  0  0  0  0
    2.9373   -0.6022    1.7059 H   0  0  0  0  0  0  0  0  0  0  0  0
    1.5375    0.3933    2.0484 H   0  0  0  0  0  0  0  0  0  0  0  0
   -1.2860   -2.8659    1.1988 H   0  0  0  0  0  0  0  0  0  0  0  0
   -1.5430   -3.6391   -0.3693 H   0  0  0  0  0  0  0  0  0  0  0  0
    1.1966   -2.7943    1.4954 H   0  0  0  0  0  0  0  0  0  0  0  0
    1.1830   -4.0445    0.2415 H   0  0  0  0  0  0  0  0  0  0  0  0
    2.2298   -2.6293    0.0659 H   0  0  0  0  0  0  0  0  0  0  0  0
   -3.3127    1.3349   -1.5622 H   0  0  0  0  0  0  0  0  0  0  0  0
   -3.9997    0.4823   -0.1604 H   0  0  0  0  0  0  0  0  0  0  0  0
   -3.7010    2.1989   -0.0605 H   0  0  0  0  0  0  0  0  0  0  0  0
   -2.3427    1.6722    1.8468 H   0  0  0  0  0  0  0  0  0  0  0  0
  1  9  1  0  0  0  0
  1 42  1  0  0  0  0
  2  3  1  0  0  0  0
  2  4  1  0  0  0  0
  2  5  1  0  0  0  0
  2 17  1  0  0  0  0
  3  4  1  0  0  0  0
  3 12  1  0  0  0  0
  3 13  1  0  0  0  0
  4  7  1  0  0  0  0
  4 18  1  0  0  0  0
  5  6  1  0  0  0  0
  5  8  1  0  0  0  0
  5 19  1  0  0  0  0
  6  9  1  0  0  0  0
  6 10  1  0  0  0  0
  6 20  1  0  0  0  0
  7 11  1  0  0  0  0
  7 21  1  0  0  0  0
  7 22  1  0  0  0  0
  8 14  1  0  0  0  0
  8 15  1  0  0  0  0
  8 23  1  0  0  0  0
  9 11  1  0  0  0  0
  9 16  1  0  0  0  0
 10 14  1  0  0  0  0
 10 24  1  0  0  0  0
 10 25  1  0  0  0  0
 11 26  1  0  0  0  0
 11 27  1  0  0  0  0
 12 28  1  0  0  0  0
 12 29  1  0  0  0  0
 12 30  1  0  0  0  0
 13 31  1  0  0  0  0
 13 32  1  0  0  0  0
 13 33  1  0  0  0  0
 14 34  1  0  0  0  0
 14 35  1  0  0  0  0
 15 36  1  0  0  0  0
 15 37  1  0  0  0  0
 15 38  1  0  0  0  0
 16 39  1  0  0  0  0
 16 40  1  0  0  0  0
 16 41  1  0  0  0  0
M  END
> <PUBCHEM_COMPOUND_CID>
6432561

> <PUBCHEM_CONFORMER_RMSD>
0.6

> <PUBCHEM_CONFORMER_DIVERSEORDER>
1
11
10
14
13
4
12
6
2
3
8
7
9
5

> <PUBCHEM_MMFF94_PARTIAL_CHARGES>
12
1 -0.68
12 0.09
13 0.09
17 0.1
18 0.1
2 -0.19
3 -0.19
4 -0.19
42 0.4
5 0.09
7 0.09
9 0.28

> <PUBCHEM_EFFECTIVE_ROTOR_COUNT>
1.4

> <PUBCHEM_PHARMACOPHORE_FEATURES>
5
1 1 acceptor
1 1 donor
3 3 12 13 hydrophobe
5 5 6 8 10 14 rings
7 2 4 5 6 7 9 11 rings

> <PUBCHEM_HEAVY_ATOM_COUNT>
16

> <PUBCHEM_ATOM_DEF_STEREO_COUNT>
2

> <PUBCHEM_ATOM_UDEF_STEREO_COUNT>
4

> <PUBCHEM_BOND_DEF_STEREO_COUNT>
0

> <PUBCHEM_BOND_UDEF_STEREO_COUNT>
0

> <PUBCHEM_ISOTOPIC_ATOM_COUNT>
0

> <PUBCHEM_COMPONENT_COUNT>
1

> <PUBCHEM_CACTVS_TAUTO_COUNT>
1

> <PUBCHEM_CONFORMER_ID>
0062273100000001

> <PUBCHEM_MMFF94_ENERGY>
51.3773

> <PUBCHEM_FEATURE_SELFOVERLAP>
25.394

> <PUBCHEM_SHAPE_FINGERPRINT>
10967382 1 18338234847438460983
11578080 2 13038055483133195770
11680611 10 18116699906335908272
11680986 33 17472968511246222868
12423570 1 11226872021894806392
13140716 1 18339923834885826337
13172582 1 18410298042103427184
13538477 17 18260542355567448748
1420 336 18050002495675931794
14251711 518 17258493873518287382
14251745 187 18272376356378207982
15001771 113 17690291824909462669
15076042 46 18123189266791395670
15309172 13 18337401469243653832
15775835 57 18260830405648511629
16752209 62 18265607861054527855
16945 1 18410007710925361621
193761 8 18194119607949786511
20510252 161 18198062692796144658
20511035 2 17761501283244896277
20645476 183 18041010573793735052
20905425 154 18198340658716217262
22802520 49 18058753354455727326
2334 1 18122906700771854429
23388829 49 17691392023895497511
23402539 116 18128246985771916118
23419403 2 14305153534794745983
23493267 7 17532391776135992256
23526113 38 17703520896113186012
23559900 14 18343869922995733004
2748010 2 18412833472988413918
2897 32 18050572837230860604
427121 178 16910091340762631675
43471831 8 18335698334549218098
5084963 1 18058457667136854110
7364860 26 17982726372790819607
81228 2 18052540159838469378

> <PUBCHEM_SHAPE_MULTIPOLES>
323.4
4.21
3.17
1
1.07
1.83
-0.28
-1.24
0.21
-0.8
-0.14
0.27
-0.16
-0.16

> <PUBCHEM_SHAPE_SELFOVERLAP>
674.539

> <PUBCHEM_SHAPE_VOLUME>
187

> <PUBCHEM_COORDINATE_TYPE>
2
5
10

$$$$
