124319
  -OEChem-11202002003D

 61 63  0     1  0  0  0  0  0999 V2000
   -0.6113    3.8376    0.0351 O   0  0  0  0  0  0  0  0  0  0  0  0
   -0.0743    1.2897   -1.4851 O   0  0  0  0  0  0  0  0  0  0  0  0
    2.3095    0.5318    1.5837 O   0  0  0  0  0  0  0  0  0  0  0  0
   -0.2399    5.5307    1.5623 O   0  0  0  0  0  0  0  0  0  0  0  0
   -1.4744    0.9858    0.3429 N   0  0  0  0  0  0  0  0  0  0  0  0
    1.6652   -0.5148   -0.3831 N   0  0  0  0  0  0  0  0  0  0  0  0
   -2.3196    2.1388    0.1304 C   0  0  1  0  0  0  0  0  0  0  0  0
    0.2665   -0.6399   -0.0584 C   0  0  2  0  0  0  0  0  0  0  0  0
   -3.7389    1.8811    0.6604 C   0  0  0  0  0  0  0  0  0  0  0  0
   -0.3844   -1.8410   -0.7538 C   0  0  0  0  0  0  0  0  0  0  0  0
   -0.4138    0.6546   -0.4890 C   0  0  0  0  0  0  0  0  0  0  0  0
   -1.7048    3.3625    0.8122 C   0  0  0  0  0  0  0  0  0  0  0  0
   -4.3915    0.6681    0.0404 C   0  0  0  0  0  0  0  0  0  0  0  0
   -0.0868   -3.1483   -0.0610 C   0  0  0  0  0  0  0  0  0  0  0  0
   -4.2389   -0.5855    0.6327 C   0  0  0  0  0  0  0  0  0  0  0  0
   -5.1465    0.8016   -1.1250 C   0  0  0  0  0  0  0  0  0  0  0  0
    2.5825    0.0696    0.4790 C   0  0  0  0  0  0  0  0  0  0  0  0
    1.0369   -3.8904   -0.4249 C   0  0  0  0  0  0  0  0  0  0  0  0
   -0.9351   -3.6146    0.9434 C   0  0  0  0  0  0  0  0  0  0  0  0
   -4.8414   -1.7055    0.0596 C   0  0  0  0  0  0  0  0  0  0  0  0
   -5.7491   -0.3183   -1.6978 C   0  0  0  0  0  0  0  0  0  0  0  0
    3.9819    0.1463   -0.0141 C   0  0  0  0  0  0  0  0  0  0  0  0
    1.3123   -5.0987    0.2154 C   0  0  0  0  0  0  0  0  0  0  0  0
   -0.6596   -4.8228    1.5838 C   0  0  0  0  0  0  0  0  0  0  0  0
   -5.5964   -1.5719   -1.1056 C   0  0  0  0  0  0  0  0  0  0  0  0
    0.4642   -5.5647    1.2197 C   0  0  0  0  0  0  0  0  0  0  0  0
    0.0360    4.9353    0.5296 C   0  0  0  0  0  0  0  0  0  0  0  0
    4.8314    1.1499    0.4516 C   0  0  0  0  0  0  0  0  0  0  0  0
    4.4465   -0.7856   -0.9423 C   0  0  0  0  0  0  0  0  0  0  0  0
    1.1578    5.3198   -0.3869 C   0  0  0  0  0  0  0  0  0  0  0  0
    6.1453    1.2219   -0.0111 C   0  0  0  0  0  0  0  0  0  0  0  0
    5.7605   -0.7136   -1.4049 C   0  0  0  0  0  0  0  0  0  0  0  0
    6.6099    0.2902   -0.9392 C   0  0  0  0  0  0  0  0  0  0  0  0
   -2.3649    2.3176   -0.9519 H   0  0  0  0  0  0  0  0  0  0  0  0
    0.1781   -0.7358    1.0314 H   0  0  0  0  0  0  0  0  0  0  0  0
   -4.3713    2.7603    0.4802 H   0  0  0  0  0  0  0  0  0  0  0  0
   -3.7172    1.7519    1.7513 H   0  0  0  0  0  0  0  0  0  0  0  0
   -1.6252    0.4380    1.1847 H   0  0  0  0  0  0  0  0  0  0  0  0
   -1.4744   -1.7120   -0.7917 H   0  0  0  0  0  0  0  0  0  0  0  0
   -0.0698   -1.9009   -1.8046 H   0  0  0  0  0  0  0  0  0  0  0  0
   -2.4494    4.1652    0.8763 H   0  0  0  0  0  0  0  0  0  0  0  0
   -1.3615    3.1151    1.8246 H   0  0  0  0  0  0  0  0  0  0  0  0
    1.9426   -0.7649   -1.3266 H   0  0  0  0  0  0  0  0  0  0  0  0
   -3.6591   -0.7056    1.5438 H   0  0  0  0  0  0  0  0  0  0  0  0
   -5.2704    1.7727   -1.5968 H   0  0  0  0  0  0  0  0  0  0  0  0
    1.7056   -3.5384   -1.2059 H   0  0  0  0  0  0  0  0  0  0  0  0
   -1.8118   -3.0441    1.2380 H   0  0  0  0  0  0  0  0  0  0  0  0
   -4.7226   -2.6816    0.5209 H   0  0  0  0  0  0  0  0  0  0  0  0
   -6.3363   -0.2145   -2.6055 H   0  0  0  0  0  0  0  0  0  0  0  0
    2.1873   -5.6763   -0.0679 H   0  0  0  0  0  0  0  0  0  0  0  0
   -1.3196   -5.1854    2.3664 H   0  0  0  0  0  0  0  0  0  0  0  0
   -6.0652   -2.4441   -1.5518 H   0  0  0  0  0  0  0  0  0  0  0  0
    0.6787   -6.5053    1.7186 H   0  0  0  0  0  0  0  0  0  0  0  0
    4.4869    1.8880    1.1712 H   0  0  0  0  0  0  0  0  0  0  0  0
    3.8275   -1.6000   -1.3069 H   0  0  0  0  0  0  0  0  0  0  0  0
    1.8727    4.4965   -0.4620 H   0  0  0  0  0  0  0  0  0  0  0  0
    1.6746    6.1942    0.0189 H   0  0  0  0  0  0  0  0  0  0  0  0
    0.7599    5.5756   -1.3721 H   0  0  0  0  0  0  0  0  0  0  0  0
    6.8066    2.0038    0.3507 H   0  0  0  0  0  0  0  0  0  0  0  0
    6.1250   -1.4430   -2.1224 H   0  0  0  0  0  0  0  0  0  0  0  0
    7.6334    0.3453   -1.2983 H   0  0  0  0  0  0  0  0  0  0  0  0
  1 12  1  0  0  0  0
  1 27  1  0  0  0  0
  2 11  2  0  0  0  0
  3 17  2  0  0  0  0
  4 27  2  0  0  0  0
  5  7  1  0  0  0  0
  5 11  1  0  0  0  0
  5 38  1  0  0  0  0
  6  8  1  0  0  0  0
  6 17  1  0  0  0  0
  6 43  1  0  0  0  0
  7  9  1  0  0  0  0
  7 12  1  0  0  0  0
  7 34  1  0  0  0  0
  8 10  1  0  0  0  0
  8 11  1  0  0  0  0
  8 35  1  0  0  0  0
  9 13  1  0  0  0  0
  9 36  1  0  0  0  0
  9 37  1  0  0  0  0
 10 14  1  0  0  0  0
 10 39  1  0  0  0  0
 10 40  1  0  0  0  0
 12 41  1  0  0  0  0
 12 42  1  0  0  0  0
 13 15  2  0  0  0  0
 13 16  1  0  0  0  0
 14 18  2  0  0  0  0
 14 19  1  0  0  0  0
 15 20  1  0  0  0  0
 15 44  1  0  0  0  0
 16 21  2  0  0  0  0
 16 45  1  0  0  0  0
 17 22  1  0  0  0  0
 18 23  1  0  0  0  0
 18 46  1  0  0  0  0
 19 24  2  0  0  0  0
 19 47  1  0  0  0  0
 20 25  2  0  0  0  0
 20 48  1  0  0  0  0
 21 25  1  0  0  0  0
 21 49  1  0  0  0  0
 22 28  2  0  0  0  0
 22 29  1  0  0  0  0
 23 26  2  0  0  0  0
 23 50  1  0  0  0  0
 24 26  1  0  0  0  0
 24 51  1  0  0  0  0
 25 52  1  0  0  0  0
 26 53  1  0  0  0  0
 27 30  1  0  0  0  0
 28 31  1  0  0  0  0
 28 54  1  0  0  0  0
 29 32  2  0  0  0  0
 29 55  1  0  0  0  0
 30 56  1  0  0  0  0
 30 57  1  0  0  0  0
 30 58  1  0  0  0  0
 31 33  2  0  0  0  0
 31 59  1  0  0  0  0
 32 33  1  0  0  0  0
 32 60  1  0  0  0  0
 33 61  1  0  0  0  0
M  END
> <PUBCHEM_COMPOUND_CID>
124319

> <PUBCHEM_CONFORMER_RMSD>
1.2

> <PUBCHEM_CONFORMER_DIVERSEORDER>
1
99
98
114
32
122
19
97
79
59
53
90
95
156
147
182
10
72
76
151
20
165
40
120
28
85
168
137
80
103
146
125
174
157
139
31
67
128
74
37
71
104
102
166
52
61
144
33
117
150
77
123
160
142
161
176
73
135
54
164
57
145
23
159
65
178
110
148
70
101
179
129
9
84
113
126
87
49
149
7
131
64
50
89
75
177
29
22
24
62
78
100
133
132
42
153
180
21
45
173
134
119
25
141
171
163
6
127
82
17
118
26
69
106
140
175
81
183
60
2
14
35
66
5
105
169
30
63
155
48
55
88
58
130
184
152
109
116
38
121
27
167
12
86
15
83
13
34
115
41
170
92
56
181
44
91
18
8
93
11
112
68
36
111
143
43
136
107
162
138
172
39
124
4
94
3
51
16
96
47
158
46
154
108

> <PUBCHEM_MMFF94_PARTIAL_CHARGES>
50
1 -0.43
10 0.14
11 0.57
12 0.28
13 -0.14
14 -0.14
15 -0.15
16 -0.15
17 0.54
18 -0.15
19 -0.15
2 -0.57
20 -0.15
21 -0.15
22 0.09
23 -0.15
24 -0.15
25 -0.15
26 -0.15
27 0.66
28 -0.15
29 -0.15
3 -0.57
30 0.06
31 -0.15
32 -0.15
33 -0.15
38 0.37
4 -0.57
43 0.37
44 0.15
45 0.15
46 0.15
47 0.15
48 0.15
49 0.15
5 -0.73
50 0.15
51 0.15
52 0.15
53 0.15
54 0.15
55 0.15
59 0.15
6 -0.73
60 0.15
61 0.15
7 0.3
8 0.36
9 0.14

> <PUBCHEM_EFFECTIVE_ROTOR_COUNT>
13

> <PUBCHEM_PHARMACOPHORE_FEATURES>
8
1 2 acceptor
1 3 acceptor
1 4 acceptor
1 5 donor
1 6 donor
6 13 15 16 20 21 25 rings
6 14 18 19 23 24 26 rings
6 22 28 29 31 32 33 rings

> <PUBCHEM_HEAVY_ATOM_COUNT>
33

> <PUBCHEM_ATOM_DEF_STEREO_COUNT>
1

> <PUBCHEM_ATOM_UDEF_STEREO_COUNT>
1

> <PUBCHEM_BOND_DEF_STEREO_COUNT>
0

> <PUBCHEM_BOND_UDEF_STEREO_COUNT>
0

> <PUBCHEM_ISOTOPIC_ATOM_COUNT>
0

> <PUBCHEM_COMPONENT_COUNT>
1

> <PUBCHEM_CACTVS_TAUTO_COUNT>
4

> <PUBCHEM_CONFORMER_ID>
0001E59F00000001

> <PUBCHEM_MMFF94_ENERGY>
79.1752

> <PUBCHEM_FEATURE_SELFOVERLAP>
40.597

> <PUBCHEM_SHAPE_FINGERPRINT>
102385 1 17761490296612791516
1100329 8 18193837269584402913
11135926 11 18336541617460771591
11227688 84 18412256234491805999
11578080 2 17752760222102551631
12058002 1 17557182585066515980
12788726 201 18410853248652807082
13782708 43 17632298935070230916
13911987 19 18334292067640334837
14394314 77 18269283379020452881
16112460 7 18126019384431399361
20775438 99 17623266670027680213
23559900 14 18269824454610522465
283562 15 18339927004587644712
3388396 114 18339912707089344503

> <PUBCHEM_SHAPE_MULTIPOLES>
645.69
12.33
8.25
1.32
5.69
0.29
0.04
-1.59
5.57
0.06
-4.12
-0.33
0.22
-0.03

> <PUBCHEM_SHAPE_SELFOVERLAP>
1363.881

> <PUBCHEM_SHAPE_VOLUME>
358.3

> <PUBCHEM_COORDINATE_TYPE>
2
5
10

$$$$
