518900
  -OEChem-11202002093D

 22 22  0     0  0  0  0  0  0999 V2000
   -3.4842   -0.0418   -0.4031 O   0  0  0  0  0  0  0  0  0  0  0  0
    4.1639    0.0037    0.6336 O   0  0  0  0  0  0  0  0  0  0  0  0
   -1.9133    0.0951    1.2803 O   0  0  0  0  0  0  0  0  0  0  0  0
    0.2020   -0.0127   -0.6043 C   0  0  0  0  0  0  0  0  0  0  0  0
   -1.2211   -0.0184   -1.0493 C   0  0  0  0  0  0  0  0  0  0  0  0
    0.8737    1.1974   -0.4314 C   0  0  0  0  0  0  0  0  0  0  0  0
    0.8616   -1.2176   -0.3612 C   0  0  0  0  0  0  0  0  0  0  0  0
    2.2051    1.2027   -0.0153 C   0  0  0  0  0  0  0  0  0  0  0  0
    2.1930   -1.2124    0.0549 C   0  0  0  0  0  0  0  0  0  0  0  0
    2.8648   -0.0021    0.2279 C   0  0  0  0  0  0  0  0  0  0  0  0
   -2.2136    0.0197    0.0965 C   0  0  0  0  0  0  0  0  0  0  0  0
   -4.5319   -0.0134    0.5715 C   0  0  0  0  0  0  0  0  0  0  0  0
   -1.4120    0.8463   -1.6965 H   0  0  0  0  0  0  0  0  0  0  0  0
   -1.4177   -0.9186   -1.6446 H   0  0  0  0  0  0  0  0  0  0  0  0
    0.3705    2.1429   -0.6155 H   0  0  0  0  0  0  0  0  0  0  0  0
    0.3488   -2.1671   -0.4903 H   0  0  0  0  0  0  0  0  0  0  0  0
    2.7170    2.1522    0.1161 H   0  0  0  0  0  0  0  0  0  0  0  0
    2.7014   -2.1540    0.2432 H   0  0  0  0  0  0  0  0  0  0  0  0
   -4.4497   -0.8750    1.2408 H   0  0  0  0  0  0  0  0  0  0  0  0
   -5.4881   -0.0682    0.0445 H   0  0  0  0  0  0  0  0  0  0  0  0
   -4.4965    0.9219    1.1383 H   0  0  0  0  0  0  0  0  0  0  0  0
    4.4690    0.9248    0.7008 H   0  0  0  0  0  0  0  0  0  0  0  0
  1 11  1  0  0  0  0
  1 12  1  0  0  0  0
  2 10  1  0  0  0  0
  2 22  1  0  0  0  0
  3 11  2  0  0  0  0
  4  5  1  0  0  0  0
  4  6  2  0  0  0  0
  4  7  1  0  0  0  0
  5 11  1  0  0  0  0
  5 13  1  0  0  0  0
  5 14  1  0  0  0  0
  6  8  1  0  0  0  0
  6 15  1  0  0  0  0
  7  9  2  0  0  0  0
  7 16  1  0  0  0  0
  8 10  2  0  0  0  0
  8 17  1  0  0  0  0
  9 10  1  0  0  0  0
  9 18  1  0  0  0  0
 12 19  1  0  0  0  0
 12 20  1  0  0  0  0
 12 21  1  0  0  0  0
M  END
> <PUBCHEM_COMPOUND_CID>
518900

> <PUBCHEM_CONFORMER_RMSD>
0.6

> <PUBCHEM_CONFORMER_DIVERSEORDER>
1
2
5
6
4
3

> <PUBCHEM_MMFF94_PARTIAL_CHARGES>
17
1 -0.43
10 0.08
11 0.66
12 0.28
15 0.15
16 0.15
17 0.15
18 0.15
2 -0.53
22 0.45
3 -0.57
4 -0.14
5 0.2
6 -0.15
7 -0.15
8 -0.15
9 -0.15

> <PUBCHEM_EFFECTIVE_ROTOR_COUNT>
3

> <PUBCHEM_PHARMACOPHORE_FEATURES>
3
1 2 donor
1 3 acceptor
6 4 6 7 8 9 10 rings

> <PUBCHEM_HEAVY_ATOM_COUNT>
12

> <PUBCHEM_ATOM_DEF_STEREO_COUNT>
0

> <PUBCHEM_ATOM_UDEF_STEREO_COUNT>
0

> <PUBCHEM_BOND_DEF_STEREO_COUNT>
0

> <PUBCHEM_BOND_UDEF_STEREO_COUNT>
0

> <PUBCHEM_ISOTOPIC_ATOM_COUNT>
0

> <PUBCHEM_COMPONENT_COUNT>
1

> <PUBCHEM_CACTVS_TAUTO_COUNT>
2

> <PUBCHEM_CONFORMER_ID>
0007EAF400000001

> <PUBCHEM_MMFF94_ENERGY>
24.0275

> <PUBCHEM_FEATURE_SELFOVERLAP>
15.223

> <PUBCHEM_SHAPE_FINGERPRINT>
10219947 1 18408885139892122732
11062470 55 18334012783228534031
11471102 22 18334298656114618792
12251169 10 18410011052478249295
14252887 29 18335424534626032138
15775835 57 17418374696615222251
16945 1 18410284814152476542
20201158 50 17894631435209643715
20279233 1 17675928689962645491
20281407 28 17167867439078423331
20645477 70 18265882576127462711
20871998 22 18126005962516615934
22485316 2 16298383573897706307
23402539 116 17023173938531474751
26918003 58 18334296479056784395
2748010 2 18051114909997018350
4047638 21 14620797115128083802
57812782 119 18186519908464764699
69090 78 18187082888747143131

> <PUBCHEM_SHAPE_MULTIPOLES>
229.35
6.88
1.12
0.93
4.49
0.01
0.02
0.05
1.98
-0.8
-0.09
0.32
-0.01
-0.02

> <PUBCHEM_SHAPE_SELFOVERLAP>
471.835

> <PUBCHEM_SHAPE_VOLUME>
132.5

> <PUBCHEM_COORDINATE_TYPE>
2
5
10

$$$$
