6420999
  -OEChem-11202002123D

 35 35  0     1  0  0  0  0  0999 V2000
    4.1756    0.3019    0.6957 O   0  0  0  0  0  0  0  0  0  0  0  0
   -1.6515    0.0200   -1.8448 O   0  0  0  0  0  0  0  0  0  0  0  0
    0.7683   -1.2164   -0.0171 C   0  0  0  0  0  0  0  0  0  0  0  0
    2.1593   -1.0163    0.6391 C   0  0  0  0  0  0  0  0  0  0  0  0
    2.9169    0.1626    0.0437 C   0  0  1  0  0  0  0  0  0  0  0  0
    0.0515    0.1233   -0.2238 C   0  0  0  0  0  0  0  0  0  0  0  0
    2.1226    1.4490    0.2435 C   0  0  0  0  0  0  0  0  0  0  0  0
    0.6472    1.3284   -0.0734 C   0  0  0  0  0  0  0  0  0  0  0  0
    0.9462   -1.9161   -1.3813 C   0  0  0  0  0  0  0  0  0  0  0  0
   -0.0288   -2.1519    0.9193 C   0  0  0  0  0  0  0  0  0  0  0  0
   -1.3592    0.0702   -0.6595 C   0  0  0  0  0  0  0  0  0  0  0  0
   -0.0324    2.6704   -0.1901 C   0  0  0  0  0  0  0  0  0  0  0  0
   -2.3451    0.0847    0.4467 C   0  0  0  0  0  0  0  0  0  0  0  0
   -3.6559    0.0400    0.1742 C   0  0  0  0  0  0  0  0  0  0  0  0
   -4.7146    0.0503    1.2279 C   0  0  0  0  0  0  0  0  0  0  0  0
    2.7650   -1.9285    0.5552 H   0  0  0  0  0  0  0  0  0  0  0  0
    2.0511   -0.8491    1.7209 H   0  0  0  0  0  0  0  0  0  0  0  0
    3.1127    0.0026   -1.0225 H   0  0  0  0  0  0  0  0  0  0  0  0
    2.5778    2.2272   -0.3830 H   0  0  0  0  0  0  0  0  0  0  0  0
    2.2324    1.8006    1.2783 H   0  0  0  0  0  0  0  0  0  0  0  0
    1.4600   -1.2737   -2.1048 H   0  0  0  0  0  0  0  0  0  0  0  0
    1.5321   -2.8368   -1.2789 H   0  0  0  0  0  0  0  0  0  0  0  0
   -0.0184   -2.1974   -1.8192 H   0  0  0  0  0  0  0  0  0  0  0  0
   -0.9841   -2.4567    0.4781 H   0  0  0  0  0  0  0  0  0  0  0  0
    0.5334   -3.0715    1.1220 H   0  0  0  0  0  0  0  0  0  0  0  0
   -0.2357   -1.6738    1.8837 H   0  0  0  0  0  0  0  0  0  0  0  0
    0.0685    3.2244    0.7492 H   0  0  0  0  0  0  0  0  0  0  0  0
   -1.0995    2.6019   -0.4153 H   0  0  0  0  0  0  0  0  0  0  0  0
    0.4301    3.2582   -0.9901 H   0  0  0  0  0  0  0  0  0  0  0  0
    4.6690   -0.5248    0.5591 H   0  0  0  0  0  0  0  0  0  0  0  0
   -1.9852    0.1405    1.4683 H   0  0  0  0  0  0  0  0  0  0  0  0
   -4.0067   -0.0108   -0.8530 H   0  0  0  0  0  0  0  0  0  0  0  0
   -5.3701    0.9154    1.0886 H   0  0  0  0  0  0  0  0  0  0  0  0
   -5.3218   -0.8571    1.1544 H   0  0  0  0  0  0  0  0  0  0  0  0
   -4.2950    0.0991    2.2377 H   0  0  0  0  0  0  0  0  0  0  0  0
  1  5  1  0  0  0  0
  1 30  1  0  0  0  0
  2 11  2  0  0  0  0
  3  4  1  0  0  0  0
  3  6  1  0  0  0  0
  3  9  1  0  0  0  0
  3 10  1  0  0  0  0
  4  5  1  0  0  0  0
  4 16  1  0  0  0  0
  4 17  1  0  0  0  0
  5  7  1  0  0  0  0
  5 18  1  0  0  0  0
  6  8  2  0  0  0  0
  6 11  1  0  0  0  0
  7  8  1  0  0  0  0
  7 19  1  0  0  0  0
  7 20  1  0  0  0  0
  8 12  1  0  0  0  0
  9 21  1  0  0  0  0
  9 22  1  0  0  0  0
  9 23  1  0  0  0  0
 10 24  1  0  0  0  0
 10 25  1  0  0  0  0
 10 26  1  0  0  0  0
 11 13  1  0  0  0  0
 12 27  1  0  0  0  0
 12 28  1  0  0  0  0
 12 29  1  0  0  0  0
 13 14  2  0  0  0  0
 13 31  1  0  0  0  0
 14 15  1  0  0  0  0
 14 32  1  0  0  0  0
 15 33  1  0  0  0  0
 15 34  1  0  0  0  0
 15 35  1  0  0  0  0
M  END
> <PUBCHEM_COMPOUND_CID>
6420999

> <PUBCHEM_CONFORMER_RMSD>
0.6

> <PUBCHEM_CONFORMER_DIVERSEORDER>
7
19
4
21
5
17
9
12
10
20
18
8
13
15
2
16
6
1
11
14
3

> <PUBCHEM_MMFF94_PARTIAL_CHARGES>
15
1 -0.68
11 0.54
12 0.14
13 -0.14
14 -0.29
15 0.14
2 -0.57
3 0.14
30 0.4
31 0.15
32 0.15
5 0.28
6 -0.12
7 0.14
8 -0.28

> <PUBCHEM_EFFECTIVE_ROTOR_COUNT>
2.8

> <PUBCHEM_PHARMACOPHORE_FEATURES>
6
1 1 acceptor
1 1 donor
1 15 hydrophobe
1 2 acceptor
3 3 9 10 hydrophobe
6 3 4 5 6 7 8 rings

> <PUBCHEM_HEAVY_ATOM_COUNT>
15

> <PUBCHEM_ATOM_DEF_STEREO_COUNT>
0

> <PUBCHEM_ATOM_UDEF_STEREO_COUNT>
1

> <PUBCHEM_BOND_DEF_STEREO_COUNT>
1

> <PUBCHEM_BOND_UDEF_STEREO_COUNT>
0

> <PUBCHEM_ISOTOPIC_ATOM_COUNT>
0

> <PUBCHEM_COMPONENT_COUNT>
1

> <PUBCHEM_CACTVS_TAUTO_COUNT>
13

> <PUBCHEM_CONFORMER_ID>
0061FA0700000007

> <PUBCHEM_MMFF94_ENERGY>
34.2883

> <PUBCHEM_FEATURE_SELFOVERLAP>
30.446

> <PUBCHEM_SHAPE_FINGERPRINT>
10219947 1 18411417314880766401
10980938 120 18341898480628276757
11067466 332 18113913627585240398
11132069 177 18412256259496029706
11471102 22 18335146383879986849
12251169 10 18336267924690396979
12346645 6 18131073701375684439
12491281 212 17845928666678806834
13140716 1 18192985144442580432
13172582 1 18338790217022667440
14251717 144 18408321107902536747
14252887 29 18340782446303712595
15219456 202 17968085370623736125
15501101 241 18040442105097410429
15775835 57 17275386512432145699
161256 15 18127701421993444580
16945 1 18337654365876930158
17844478 74 17822286873074342829
193761 8 17833543497194542248
20511035 2 18050573146690168716
20645477 70 18339914901970847383
20871998 22 18268158556374428183
21041028 32 17984703316425397194
21061003 4 18334008393709017853
21256008 23 18410575089005798401
21501502 16 17974009745200703062
21637258 2 15213286560947532248
22344851 262 17775565364013775447
22344851 341 17979636741016805320
2334 1 17832130998742130408
23402539 116 18341601629637101822
23419403 2 15375060816293119072
23557571 272 16443337633938222773
2748010 2 18052240809766860108
276578 36 16988851553256723055
528886 8 18272926141892837410
568465 68 17895776057232234451
77492 1 17774713242876756413

> <PUBCHEM_SHAPE_MULTIPOLES>
296.95
5.94
2.12
1.17
4.59
0.36
0.35
0.48
-2.5
-0.92
0.07
0.4
-0.37
0.2

> <PUBCHEM_SHAPE_SELFOVERLAP>
597.643

> <PUBCHEM_SHAPE_VOLUME>
174.6

> <PUBCHEM_COORDINATE_TYPE>
2
5
10

$$$$
