624971
  -OEChem-11202006363D

 49 52  0     1  0  0  0  0  0999 V2000
   -2.9021   -1.4771    0.3073 O   0  0  0  0  0  0  0  0  0  0  0  0
   -4.0336    3.0286    1.0518 O   0  0  0  0  0  0  0  0  0  0  0  0
    4.0084    1.7600   -1.0790 O   0  0  0  0  0  0  0  0  0  0  0  0
    5.3124    0.1563    0.7203 O   0  0  0  0  0  0  0  0  0  0  0  0
   -0.1647   -0.8601   -0.6066 C   0  0  1  0  0  0  0  0  0  0  0  0
   -0.6583   -2.2461   -0.1405 C   0  0  0  0  0  0  0  0  0  0  0  0
   -2.1466   -2.4522   -0.4207 C   0  0  0  0  0  0  0  0  0  0  0  0
   -1.1748    0.2186   -0.2120 C   0  0  0  0  0  0  0  0  0  0  0  0
    1.2894   -0.5877   -0.2016 C   0  0  0  0  0  0  0  0  0  0  0  0
   -2.4520   -0.1805    0.2530 C   0  0  0  0  0  0  0  0  0  0  0  0
   -0.9402    1.6087   -0.3561 C   0  0  0  0  0  0  0  0  0  0  0  0
    0.2830    2.2666   -0.9666 C   0  0  0  0  0  0  0  0  0  0  0  0
    1.9844    0.4760   -0.8125 C   0  0  0  0  0  0  0  0  0  0  0  0
    1.2653    1.4057   -1.7499 C   0  0  0  0  0  0  0  0  0  0  0  0
   -2.5145   -2.4031   -1.9105 C   0  0  0  0  0  0  0  0  0  0  0  0
   -2.5745   -3.8184    0.1378 C   0  0  0  0  0  0  0  0  0  0  0  0
   -3.4013    0.7496    0.6937 C   0  0  0  0  0  0  0  0  0  0  0  0
   -1.9176    2.5260    0.0978 C   0  0  0  0  0  0  0  0  0  0  0  0
    1.9942   -1.3755    0.7273 C   0  0  0  0  0  0  0  0  0  0  0  0
   -3.1282    2.1040    0.6309 C   0  0  0  0  0  0  0  0  0  0  0  0
    3.3335    0.7219   -0.5024 C   0  0  0  0  0  0  0  0  0  0  0  0
    3.3354   -1.1234    1.0318 C   0  0  0  0  0  0  0  0  0  0  0  0
    4.0069   -0.0775    0.4142 C   0  0  0  0  0  0  0  0  0  0  0  0
   -4.7270    0.2943    1.2209 C   0  0  0  0  0  0  0  0  0  0  0  0
    5.9222   -0.7147    1.6716 C   0  0  0  0  0  0  0  0  0  0  0  0
   -0.1743   -0.9103   -1.7040 H   0  0  0  0  0  0  0  0  0  0  0  0
   -0.0600   -3.0381   -0.6091 H   0  0  0  0  0  0  0  0  0  0  0  0
   -0.5274   -2.3319    0.9470 H   0  0  0  0  0  0  0  0  0  0  0  0
   -0.0753    3.0376   -1.6632 H   0  0  0  0  0  0  0  0  0  0  0  0
    0.8176    2.7910   -0.1623 H   0  0  0  0  0  0  0  0  0  0  0  0
    1.9695    2.0639   -2.2719 H   0  0  0  0  0  0  0  0  0  0  0  0
    0.7646    0.8442   -2.5469 H   0  0  0  0  0  0  0  0  0  0  0  0
   -1.9479   -3.1434   -2.4848 H   0  0  0  0  0  0  0  0  0  0  0  0
   -3.5835   -2.6030   -2.0490 H   0  0  0  0  0  0  0  0  0  0  0  0
   -2.3388   -1.4172   -2.3520 H   0  0  0  0  0  0  0  0  0  0  0  0
   -2.3835   -3.8786    1.2157 H   0  0  0  0  0  0  0  0  0  0  0  0
   -3.6523   -3.9727    0.0097 H   0  0  0  0  0  0  0  0  0  0  0  0
   -2.0449   -4.6405   -0.3549 H   0  0  0  0  0  0  0  0  0  0  0  0
   -1.7186    3.5942    0.0160 H   0  0  0  0  0  0  0  0  0  0  0  0
    1.5282   -2.2131    1.2362 H   0  0  0  0  0  0  0  0  0  0  0  0
    3.7873   -1.7900    1.7587 H   0  0  0  0  0  0  0  0  0  0  0  0
   -5.3463   -0.0836    0.4006 H   0  0  0  0  0  0  0  0  0  0  0  0
   -4.5944   -0.5000    1.9639 H   0  0  0  0  0  0  0  0  0  0  0  0
   -5.2863    1.0901    1.7224 H   0  0  0  0  0  0  0  0  0  0  0  0
   -3.6640    3.9190    0.9235 H   0  0  0  0  0  0  0  0  0  0  0  0
    4.9189    1.7680   -0.7363 H   0  0  0  0  0  0  0  0  0  0  0  0
    5.9562   -1.7478    1.3093 H   0  0  0  0  0  0  0  0  0  0  0  0
    5.4476   -0.6330    2.6554 H   0  0  0  0  0  0  0  0  0  0  0  0
    6.9597   -0.3855    1.7910 H   0  0  0  0  0  0  0  0  0  0  0  0
  1  7  1  0  0  0  0
  1 10  1  0  0  0  0
  2 20  1  0  0  0  0
  2 45  1  0  0  0  0
  3 21  1  0  0  0  0
  3 46  1  0  0  0  0
  4 23  1  0  0  0  0
  4 25  1  0  0  0  0
  5  6  1  0  0  0  0
  5  8  1  0  0  0  0
  5  9  1  0  0  0  0
  5 26  1  0  0  0  0
  6  7  1  0  0  0  0
  6 27  1  0  0  0  0
  6 28  1  0  0  0  0
  7 15  1  0  0  0  0
  7 16  1  0  0  0  0
  8 10  2  0  0  0  0
  8 11  1  0  0  0  0
  9 13  2  0  0  0  0
  9 19  1  0  0  0  0
 10 17  1  0  0  0  0
 11 12  1  0  0  0  0
 11 18  2  0  0  0  0
 12 14  1  0  0  0  0
 12 29  1  0  0  0  0
 12 30  1  0  0  0  0
 13 14  1  0  0  0  0
 13 21  1  0  0  0  0
 14 31  1  0  0  0  0
 14 32  1  0  0  0  0
 15 33  1  0  0  0  0
 15 34  1  0  0  0  0
 15 35  1  0  0  0  0
 16 36  1  0  0  0  0
 16 37  1  0  0  0  0
 16 38  1  0  0  0  0
 17 20  2  0  0  0  0
 17 24  1  0  0  0  0
 18 20  1  0  0  0  0
 18 39  1  0  0  0  0
 19 22  2  0  0  0  0
 19 40  1  0  0  0  0
 21 23  2  0  0  0  0
 22 23  1  0  0  0  0
 22 41  1  0  0  0  0
 24 42  1  0  0  0  0
 24 43  1  0  0  0  0
 24 44  1  0  0  0  0
 25 47  1  0  0  0  0
 25 48  1  0  0  0  0
 25 49  1  0  0  0  0
M  END
> <PUBCHEM_COMPOUND_CID>
624971

> <PUBCHEM_CONFORMER_RMSD>
0.6

> <PUBCHEM_CONFORMER_DIVERSEORDER>
2
4
3
6
1
5
7
8

> <PUBCHEM_MMFF94_PARTIAL_CHARGES>
27
1 -0.36
10 0.08
11 -0.14
12 0.14
13 -0.14
14 0.14
17 -0.14
18 -0.15
19 -0.15
2 -0.53
20 0.08
21 0.08
22 -0.15
23 0.08
24 0.14
25 0.28
3 -0.53
39 0.15
4 -0.36
40 0.15
41 0.15
45 0.45
46 0.45
5 0.29
7 0.28
8 -0.14
9 -0.14

> <PUBCHEM_EFFECTIVE_ROTOR_COUNT>
2

> <PUBCHEM_PHARMACOPHORE_FEATURES>
9
1 1 acceptor
1 2 donor
1 3 donor
1 4 acceptor
3 7 15 16 hydrophobe
6 1 5 6 7 8 10 rings
6 8 10 11 17 18 20 rings
6 9 13 19 21 22 23 rings
7 5 8 9 11 12 13 14 rings

> <PUBCHEM_HEAVY_ATOM_COUNT>
25

> <PUBCHEM_ATOM_DEF_STEREO_COUNT>
0

> <PUBCHEM_ATOM_UDEF_STEREO_COUNT>
1

> <PUBCHEM_BOND_DEF_STEREO_COUNT>
0

> <PUBCHEM_BOND_UDEF_STEREO_COUNT>
0

> <PUBCHEM_ISOTOPIC_ATOM_COUNT>
0

> <PUBCHEM_COMPONENT_COUNT>
1

> <PUBCHEM_CACTVS_TAUTO_COUNT>
80

> <PUBCHEM_CONFORMER_ID>
0009894B00000002

> <PUBCHEM_MMFF94_ENERGY>
101.6086

> <PUBCHEM_FEATURE_SELFOVERLAP>
45.72

> <PUBCHEM_SHAPE_FINGERPRINT>
10062212 137 18262520410854874294
10319926 262 18200577165201096058
10493431 412 18269557152524469017
1100329 8 18338241595417684377
11578080 2 17899107654474010461
12107183 9 18121493562659472930
12236239 1 18187081771506636626
12403814 3 18113899329982217653
12422481 6 18117561721446164560
12553582 1 18259987093494405974
12633257 1 18202283619335954808
12788726 201 18268157637288687887
13004483 165 17984691479495964775
13009979 54 18262801894796091830
13140716 1 18196095658315542897
13583140 156 16950838090151574701
13965767 371 17687198494990057761
14081887 123 18271517676119376240
14178342 30 18410856572778496798
14420673 8 18194682558721599834
14739800 52 18126279981842005736
15042514 8 18339088184990611251
15131766 46 16590299620289481364
15209294 21 18341046333426100552
16110190 28 18118956993808820778
16728300 4 17750227024595550419
16945 1 18339941371611432965
16992727 255 18266714967186362349
17980427 23 18201432640185463356
1813 80 16878515523192552550
19319366 153 16819971278466809159
19591789 44 17688595957352777326
20261772 1 18335708225795097112
20511986 3 18187916287763120033
20715895 44 17756990009091957021
20739085 24 17603594032354264844
20905425 154 17767698508836475101
21033648 29 18200301109439573337
21731228 192 18196939876976474769
22112679 90 18339082716942979007
22149856 69 17837807468783356385
23419403 2 17694176305101601965
23557571 272 17916603036328922142
23559900 14 18059029285014755036
23569917 315 18339924797639580223
23728640 28 18411985767183419611
25147074 1 18187089507307310932
2748010 2 17905059057975372703
34934 24 18334582368880326885
5104073 3 18337950211993542594
56633871 153 18261946333337917874
58807428 26 18194696864877062409
5924683 9 18200861967928368222
6438718 38 18059861700815686343
7064713 232 18340206280493497360
7097593 13 18189326892989438378
7471813 234 17910660287602788311
9862522 239 18189611631998979765

> <PUBCHEM_SHAPE_MULTIPOLES>
491.01
9.3
3.47
1.37
9.72
1.12
0.22
-0.69
-4.79
-4.25
0.37
0.33
-0.01
-2.21

> <PUBCHEM_SHAPE_SELFOVERLAP>
1082.362

> <PUBCHEM_SHAPE_VOLUME>
263.2

> <PUBCHEM_COORDINATE_TYPE>
2
5
10

$$$$
