7299790
  -OEChem-08252004203D

 54 57  0     1  0  0  0  0  0999 V2000
   -1.4104   -2.3512    0.7617 O   0  0  0  0  0  0  0  0  0  0  0  0
    1.0114   -0.5282   -1.7745 O   0  0  0  0  0  0  0  0  0  0  0  0
   -5.9274   -0.9949   -0.7956 O   0  0  0  0  0  0  0  0  0  0  0  0
    4.5606    2.5232   -0.0346 O   0  0  0  0  0  0  0  0  0  0  0  0
   -6.2098    1.7205   -0.2762 O   0  0  0  0  0  0  0  0  0  0  0  0
    6.7304    0.8754    0.5127 O   0  0  0  0  0  0  0  0  0  0  0  0
   -0.1441   -0.4078    0.2928 C   0  0  2  0  0  0  0  0  0  0  0  0
    0.8109   -1.5705    0.3572 C   0  0  2  0  0  0  0  0  0  0  0  0
   -1.3745   -0.9348    1.0173 C   0  0  1  0  0  0  0  0  0  0  0  0
    1.7174   -1.3831   -0.8535 C   0  0  2  0  0  0  0  0  0  0  0  0
   -0.1325   -2.7659    0.2547 C   0  0  0  0  0  0  0  0  0  0  0  0
   -0.2622   -0.1850   -1.2093 C   0  0  0  0  0  0  0  0  0  0  0  0
   -2.6639   -0.2304    0.6716 C   0  0  0  0  0  0  0  0  0  0  0  0
    3.0558   -0.7765   -0.4887 C   0  0  0  0  0  0  0  0  0  0  0  0
   -3.7177   -0.9401    0.0901 C   0  0  0  0  0  0  0  0  0  0  0  0
    3.1992    0.6095   -0.4276 C   0  0  0  0  0  0  0  0  0  0  0  0
   -2.8096    1.1349    0.9310 C   0  0  0  0  0  0  0  0  0  0  0  0
    4.1446   -1.6038   -0.2144 C   0  0  0  0  0  0  0  0  0  0  0  0
   -4.9091   -0.2890   -0.2300 C   0  0  0  0  0  0  0  0  0  0  0  0
    4.4325    1.1685   -0.0921 C   0  0  0  0  0  0  0  0  0  0  0  0
   -4.0008    1.7860    0.6111 C   0  0  0  0  0  0  0  0  0  0  0  0
    5.3776   -1.0449    0.1212 C   0  0  0  0  0  0  0  0  0  0  0  0
   -5.0506    1.0741    0.0307 C   0  0  0  0  0  0  0  0  0  0  0  0
    5.5216    0.3412    0.1826 C   0  0  0  0  0  0  0  0  0  0  0  0
   -6.8677   -1.5991    0.0904 C   0  0  0  0  0  0  0  0  0  0  0  0
    3.3993    3.2973   -0.3292 C   0  0  0  0  0  0  0  0  0  0  0  0
   -6.2736    3.1137    0.0222 C   0  0  0  0  0  0  0  0  0  0  0  0
    7.7924   -0.0389    0.7785 C   0  0  0  0  0  0  0  0  0  0  0  0
    0.2657    0.4907    0.7680 H   0  0  0  0  0  0  0  0  0  0  0  0
    1.3467   -1.6151    1.3127 H   0  0  0  0  0  0  0  0  0  0  0  0
   -1.2251   -0.8406    2.1014 H   0  0  0  0  0  0  0  0  0  0  0  0
    1.8964   -2.3321   -1.3734 H   0  0  0  0  0  0  0  0  0  0  0  0
   -0.2787   -3.1081   -0.7754 H   0  0  0  0  0  0  0  0  0  0  0  0
    0.2268   -3.6162    0.8427 H   0  0  0  0  0  0  0  0  0  0  0  0
   -1.0175   -0.8238   -1.6800 H   0  0  0  0  0  0  0  0  0  0  0  0
   -0.4956    0.8552   -1.4556 H   0  0  0  0  0  0  0  0  0  0  0  0
   -3.6314   -2.0015   -0.1262 H   0  0  0  0  0  0  0  0  0  0  0  0
    2.3256    1.2141   -0.6391 H   0  0  0  0  0  0  0  0  0  0  0  0
   -2.0000    1.6997    1.3860 H   0  0  0  0  0  0  0  0  0  0  0  0
    4.0427   -2.6850   -0.2569 H   0  0  0  0  0  0  0  0  0  0  0  0
   -4.0400    2.8449    0.8424 H   0  0  0  0  0  0  0  0  0  0  0  0
    6.1785   -1.7480    0.3223 H   0  0  0  0  0  0  0  0  0  0  0  0
   -7.3678   -0.8389    0.6988 H   0  0  0  0  0  0  0  0  0  0  0  0
   -6.3709   -2.3304    0.7360 H   0  0  0  0  0  0  0  0  0  0  0  0
   -7.6204   -2.1171   -0.5101 H   0  0  0  0  0  0  0  0  0  0  0  0
    3.6837    4.3509   -0.2379 H   0  0  0  0  0  0  0  0  0  0  0  0
    2.6005    3.1210    0.3993 H   0  0  0  0  0  0  0  0  0  0  0  0
    3.0650    3.1482   -1.3616 H   0  0  0  0  0  0  0  0  0  0  0  0
   -5.5390    3.6845   -0.5562 H   0  0  0  0  0  0  0  0  0  0  0  0
   -6.1927    3.3000    1.0985 H   0  0  0  0  0  0  0  0  0  0  0  0
   -7.2636    3.4645   -0.2874 H   0  0  0  0  0  0  0  0  0  0  0  0
    8.0444   -0.6332   -0.1064 H   0  0  0  0  0  0  0  0  0  0  0  0
    7.5782   -0.6629    1.6528 H   0  0  0  0  0  0  0  0  0  0  0  0
    8.6775    0.5576    1.0232 H   0  0  0  0  0  0  0  0  0  0  0  0
  1  9  1  0  0  0  0
  1 11  1  0  0  0  0
  2 10  1  0  0  0  0
  2 12  1  0  0  0  0
  3 19  1  0  0  0  0
  3 25  1  0  0  0  0
  4 20  1  0  0  0  0
  4 26  1  0  0  0  0
  5 23  1  0  0  0  0
  5 27  1  0  0  0  0
  6 24  1  0  0  0  0
  6 28  1  0  0  0  0
  7  8  1  0  0  0  0
  7  9  1  0  0  0  0
  7 12  1  0  0  0  0
  7 29  1  0  0  0  0
  8 10  1  0  0  0  0
  8 11  1  0  0  0  0
  8 30  1  0  0  0  0
  9 13  1  0  0  0  0
  9 31  1  0  0  0  0
 10 14  1  0  0  0  0
 10 32  1  0  0  0  0
 11 33  1  0  0  0  0
 11 34  1  0  0  0  0
 12 35  1  0  0  0  0
 12 36  1  0  0  0  0
 13 15  2  0  0  0  0
 13 17  1  0  0  0  0
 14 16  2  0  0  0  0
 14 18  1  0  0  0  0
 15 19  1  0  0  0  0
 15 37  1  0  0  0  0
 16 20  1  0  0  0  0
 16 38  1  0  0  0  0
 17 21  2  0  0  0  0
 17 39  1  0  0  0  0
 18 22  2  0  0  0  0
 18 40  1  0  0  0  0
 19 23  2  0  0  0  0
 20 24  2  0  0  0  0
 21 23  1  0  0  0  0
 21 41  1  0  0  0  0
 22 24  1  0  0  0  0
 22 42  1  0  0  0  0
 25 43  1  0  0  0  0
 25 44  1  0  0  0  0
 25 45  1  0  0  0  0
 26 46  1  0  0  0  0
 26 47  1  0  0  0  0
 26 48  1  0  0  0  0
 27 49  1  0  0  0  0
 27 50  1  0  0  0  0
 27 51  1  0  0  0  0
 28 52  1  0  0  0  0
 28 53  1  0  0  0  0
 28 54  1  0  0  0  0
M  END
> <PUBCHEM_COMPOUND_CID>
7299790

> <PUBCHEM_CONFORMER_RMSD>
0.8

> <PUBCHEM_CONFORMER_DIVERSEORDER>
6
11
47
37
59
43
53
24
2
16
45
10
29
42
4
48
21
9
22
57
44
28
35
36
32
40
14
5
30
49
23
56
54
51
41
7
33
55
20
12
27
46
58
8
19
39
50
18
31
34
25
38
15
1
52
13
17
26
3

> <PUBCHEM_MMFF94_PARTIAL_CHARGES>
32
1 -0.56
10 0.42
11 0.28
12 0.28
13 -0.14
14 -0.14
15 -0.15
16 -0.15
17 -0.15
18 -0.15
19 0.08
2 -0.56
20 0.08
21 -0.15
22 -0.15
23 0.08
24 0.08
25 0.28
26 0.28
27 0.28
28 0.28
3 -0.36
37 0.15
38 0.15
39 0.15
4 -0.36
40 0.15
41 0.15
42 0.15
5 -0.36
6 -0.36
9 0.42

> <PUBCHEM_EFFECTIVE_ROTOR_COUNT>
7.2

> <PUBCHEM_PHARMACOPHORE_FEATURES>
10
1 1 acceptor
1 2 acceptor
1 3 acceptor
1 4 acceptor
1 5 acceptor
1 6 acceptor
5 1 7 8 9 11 rings
5 2 7 8 10 12 rings
6 13 15 17 19 21 23 rings
6 14 16 18 20 22 24 rings

> <PUBCHEM_HEAVY_ATOM_COUNT>
28

> <PUBCHEM_ATOM_DEF_STEREO_COUNT>
4

> <PUBCHEM_ATOM_UDEF_STEREO_COUNT>
0

> <PUBCHEM_BOND_DEF_STEREO_COUNT>
0

> <PUBCHEM_BOND_UDEF_STEREO_COUNT>
0

> <PUBCHEM_ISOTOPIC_ATOM_COUNT>
0

> <PUBCHEM_COMPONENT_COUNT>
1

> <PUBCHEM_CACTVS_TAUTO_COUNT>
1

> <PUBCHEM_CONFORMER_ID>
006F62CE00000006

> <PUBCHEM_MMFF94_ENERGY>
125.7412

> <PUBCHEM_FEATURE_SELFOVERLAP>
51.189

> <PUBCHEM_SHAPE_FINGERPRINT>
10595046 47 18343582906867729355
10835480 77 18341329986289015725
11089746 13 18260546736259958890
11724838 91 18201997763782537950
12107183 9 18334007299193646466
12166972 35 18335424590344815741
12236239 1 18409446951801055959
12403260 363 18340772559046157208
12633257 1 18187358870644850274
13402501 40 18409167688479516060
13673619 4 10737292346235533606
13685833 64 9223219754795223629
13690498 29 11959726041544965235
13911987 19 16630806599451004639
14251764 18 18186239537416182778
14251764 38 18341622507199425345
14856354 85 15769502032130890319
15238133 3 18334866030718058380
15461852 350 17560519616522102414
15537594 2 11815903336141128773
18608769 82 18410298034742692179
20157964 124 18272373031809887062
20511986 3 18261945259369058267
20567600 247 8862938364247873381
20715895 44 18411140203870734856
21033648 29 18408037433538704032
21298829 104 18340771446776871344
21315763 129 18410575089195806429
21315764 268 18333446564589086781
21403212 168 18334286531907401442
21774942 28 17916024551431883552
22950370 63 9583517611883560091
23559900 14 18270971137378852742
23569917 315 18113344123628959411
2838139 119 18412260666169528597
335352 9 18409451414941548134
3472631 163 18269839718929294493
34797466 226 17775015612668947759
351380 180 18411421700227089376
3737641 26 9583250426105041108
4073 2 18041003994289362346
4325135 7 18202281424908119215
5385378 56 17604430669902313747
6328613 192 18041856116133035748
6371009 1 18411699863905977512
99344 41 18411696552380157946
9981440 41 18334021596713156883
999808 66 11167648928710361925

> <PUBCHEM_SHAPE_MULTIPOLES>
541.01
18.73
2.92
0.97
0.89
1.66
-0.14
7.07
1.57
-1.29
0.07
0.05
-0.13
-0.08

> <PUBCHEM_SHAPE_SELFOVERLAP>
1171.988

> <PUBCHEM_SHAPE_VOLUME>
301.2

> <PUBCHEM_COORDINATE_TYPE>
2
5
10

$$$$
