85437819
  -OEChem-08252004013D

 40 40  0     1  0  0  0  0  0999 V2000
   -0.2482   -0.7819    1.5186 O   0  0  0  0  0  0  0  0  0  0  0  0
   -1.4862   -0.0711   -0.4296 C   0  0  1  0  0  0  0  0  0  0  0  0
   -2.7693   -0.8867   -0.2785 C   0  0  0  0  0  0  0  0  0  0  0  0
   -1.6784    1.3596    0.1206 C   0  0  0  0  0  0  0  0  0  0  0  0
   -0.6227    2.3730   -0.3644 C   0  0  0  0  0  0  0  0  0  0  0  0
   -0.3682   -0.8308    0.2930 C   0  0  0  0  0  0  0  0  0  0  0  0
    0.5331   -1.7200   -0.5586 C   0  0  0  0  0  0  0  0  0  0  0  0
   -3.3759   -0.6799    1.1072 C   0  0  0  0  0  0  0  0  0  0  0  0
   -3.7732   -0.5129   -1.3662 C   0  0  0  0  0  0  0  0  0  0  0  0
    0.7863    2.0210    0.0596 C   0  0  0  0  0  0  0  0  0  0  0  0
    1.9818   -1.6292   -0.1383 C   0  0  0  0  0  0  0  0  0  0  0  0
    2.9130   -0.7408   -0.9441 C   0  0  0  0  0  0  0  0  0  0  0  0
    2.9174    0.7438   -0.5411 C   0  0  0  0  0  0  0  0  0  0  0  0
    1.5952    1.3948   -0.8162 C   0  0  0  0  0  0  0  0  0  0  0  0
    1.1366    2.3572    1.4818 C   0  0  0  0  0  0  0  0  0  0  0  0
    2.4587   -2.3964    0.8562 C   0  0  0  0  0  0  0  0  0  0  0  0
   -1.2156   -0.0032   -1.4903 H   0  0  0  0  0  0  0  0  0  0  0  0
   -2.5408   -1.9544   -0.3946 H   0  0  0  0  0  0  0  0  0  0  0  0
   -1.6774    1.3643    1.2176 H   0  0  0  0  0  0  0  0  0  0  0  0
   -2.6471    1.7630   -0.1951 H   0  0  0  0  0  0  0  0  0  0  0  0
   -0.8755    3.3703    0.0172 H   0  0  0  0  0  0  0  0  0  0  0  0
   -0.6885    2.4538   -1.4574 H   0  0  0  0  0  0  0  0  0  0  0  0
    0.4358   -1.4535   -1.6160 H   0  0  0  0  0  0  0  0  0  0  0  0
    0.1591   -2.7466   -0.4647 H   0  0  0  0  0  0  0  0  0  0  0  0
   -3.3434   -0.6612   -2.3626 H   0  0  0  0  0  0  0  0  0  0  0  0
   -4.6636   -1.1476   -1.2956 H   0  0  0  0  0  0  0  0  0  0  0  0
   -4.1071    0.5262   -1.2918 H   0  0  0  0  0  0  0  0  0  0  0  0
   -2.6734   -0.8928    1.9166 H   0  0  0  0  0  0  0  0  0  0  0  0
   -3.7850    0.3251    1.2517 H   0  0  0  0  0  0  0  0  0  0  0  0
   -4.2176   -1.3707    1.2397 H   0  0  0  0  0  0  0  0  0  0  0  0
    2.6760   -0.8432   -2.0112 H   0  0  0  0  0  0  0  0  0  0  0  0
    3.9422   -1.1122   -0.8451 H   0  0  0  0  0  0  0  0  0  0  0  0
    3.6829    1.2652   -1.1281 H   0  0  0  0  0  0  0  0  0  0  0  0
    3.2154    0.8247    0.5079 H   0  0  0  0  0  0  0  0  0  0  0  0
    1.2249    1.2396   -1.8295 H   0  0  0  0  0  0  0  0  0  0  0  0
    0.9271    3.4146    1.6770 H   0  0  0  0  0  0  0  0  0  0  0  0
    2.1921    2.2017    1.7151 H   0  0  0  0  0  0  0  0  0  0  0  0
    0.5457    1.7582    2.1805 H   0  0  0  0  0  0  0  0  0  0  0  0
    3.5052   -2.3676    1.1406 H   0  0  0  0  0  0  0  0  0  0  0  0
    1.8098   -3.0663    1.4106 H   0  0  0  0  0  0  0  0  0  0  0  0
  1  6  2  0  0  0  0
  2  3  1  0  0  0  0
  2  4  1  0  0  0  0
  2  6  1  0  0  0  0
  2 17  1  0  0  0  0
  3  8  1  0  0  0  0
  3  9  1  0  0  0  0
  3 18  1  0  0  0  0
  4  5  1  0  0  0  0
  4 19  1  0  0  0  0
  4 20  1  0  0  0  0
  5 10  1  0  0  0  0
  5 21  1  0  0  0  0
  5 22  1  0  0  0  0
  6  7  1  0  0  0  0
  7 11  1  0  0  0  0
  7 23  1  0  0  0  0
  7 24  1  0  0  0  0
  8 28  1  0  0  0  0
  8 29  1  0  0  0  0
  8 30  1  0  0  0  0
  9 25  1  0  0  0  0
  9 26  1  0  0  0  0
  9 27  1  0  0  0  0
 10 14  2  3  0  0  0
 10 15  1  0  0  0  0
 11 12  1  0  0  0  0
 11 16  2  0  0  0  0
 12 13  1  0  0  0  0
 12 31  1  0  0  0  0
 12 32  1  0  0  0  0
 13 14  1  0  0  0  0
 13 33  1  0  0  0  0
 13 34  1  0  0  0  0
 14 35  1  0  0  0  0
 15 36  1  0  0  0  0
 15 37  1  0  0  0  0
 15 38  1  0  0  0  0
 16 39  1  0  0  0  0
 16 40  1  0  0  0  0
M  END
> <PUBCHEM_COMPOUND_CID>
85437819

> <PUBCHEM_CONFORMER_RMSD>
0.6

> <PUBCHEM_CONFORMER_DIVERSEORDER>
1
16
15
9
12
4
6
10
11
14
13
7
5
3
8
2

> <PUBCHEM_MMFF94_PARTIAL_CHARGES>
15
1 -0.57
10 -0.28
11 -0.28
12 0.14
13 0.14
14 -0.29
15 0.14
16 -0.3
2 0.06
35 0.15
39 0.15
40 0.15
5 0.14
6 0.45
7 0.2

> <PUBCHEM_EFFECTIVE_ROTOR_COUNT>
2.2

> <PUBCHEM_PHARMACOPHORE_FEATURES>
2
1 1 acceptor
3 3 8 9 hydrophobe

> <PUBCHEM_HEAVY_ATOM_COUNT>
16

> <PUBCHEM_ATOM_DEF_STEREO_COUNT>
0

> <PUBCHEM_ATOM_UDEF_STEREO_COUNT>
1

> <PUBCHEM_BOND_DEF_STEREO_COUNT>
0

> <PUBCHEM_BOND_UDEF_STEREO_COUNT>
1

> <PUBCHEM_ISOTOPIC_ATOM_COUNT>
0

> <PUBCHEM_COMPONENT_COUNT>
1

> <PUBCHEM_CACTVS_TAUTO_COUNT>
8

> <PUBCHEM_CONFORMER_ID>
0517AD7B00000001

> <PUBCHEM_MMFF94_ENERGY>
29.1454

> <PUBCHEM_FEATURE_SELFOVERLAP>
10.148

> <PUBCHEM_SHAPE_FINGERPRINT>
104564 63 18268444446519737244
10989021 7 18339922623841880295
13140716 1 18050851322994787880
14178342 30 17838615913758631009
1420 336 17903643977620049962
14251717 144 18341610477158962095
14251745 187 18260541212795132765
14817 1 15870266967866961496
15775835 57 18127706017634928956
16945 1 18335424603070935796
20201158 50 18261396675801329566
20645477 70 18272366537998424261
20905425 154 18411135801439325876
21041028 32 18268443351630098769
21501502 16 18337393716748413917
22112679 90 18058746692534248057
2334 1 18338520742010385172
23402539 116 18267016155383128158
23419403 2 17686289341050282564
23526113 38 17821450170648461435
23557571 272 17913475862246201946
257057 1 18120362173435940910
2748010 2 18338510850695700716
2897 32 18263936457683612772
3323516 105 18264492973871164911
57483677 104 18196371639559654881
59915604 170 18187365441180155823
7364860 26 18130218380044937609
7832392 63 18200039425972647409
81228 2 17762903156217126155

> <PUBCHEM_SHAPE_MULTIPOLES>
323.4
5.1
2.79
1.27
2.81
0.89
-0.24
-2.05
0.99
-1.58
-0.54
0.2
0.01
-0.1

> <PUBCHEM_SHAPE_SELFOVERLAP>
637.466

> <PUBCHEM_SHAPE_VOLUME>
192.2

> <PUBCHEM_COORDINATE_TYPE>
2
5
10

$$$$
