5379033
  -OEChem-08252004363D

 46 48  0     1  0  0  0  0  0999 V2000
    0.1474   -0.6977    0.7679 O   0  0  0  0  0  0  0  0  0  0  0  0
   -2.0364   -2.5558    0.8638 O   0  0  0  0  0  0  0  0  0  0  0  0
    4.6434   -1.2847   -1.4602 O   0  0  0  0  0  0  0  0  0  0  0  0
    6.3769    0.3224    0.0011 O   0  0  0  0  0  0  0  0  0  0  0  0
    0.0182    1.6245    0.0421 C   0  0  2  0  0  0  0  0  0  0  0  0
    0.7925    0.5995    0.9125 C   0  0  2  0  0  0  0  0  0  0  0  0
   -1.3075    0.9436    0.0521 C   0  0  0  0  0  0  0  0  0  0  0  0
   -1.1484   -0.3773    0.4488 C   0  0  0  0  0  0  0  0  0  0  0  0
    2.2818    0.5233    0.6669 C   0  0  0  0  0  0  0  0  0  0  0  0
    0.5208    1.7970   -1.3898 C   0  0  0  0  0  0  0  0  0  0  0  0
   -2.5527    1.4280   -0.3082 C   0  0  0  0  0  0  0  0  0  0  0  0
   -2.2063   -1.2644    0.4865 C   0  0  0  0  0  0  0  0  0  0  0  0
   -3.6407    0.5522   -0.2632 C   0  0  0  0  0  0  0  0  0  0  0  0
    2.7881   -0.3541   -0.2933 C   0  0  0  0  0  0  0  0  0  0  0  0
   -3.4678   -0.7858    0.1289 C   0  0  0  0  0  0  0  0  0  0  0  0
    3.1538    1.3298    1.4003 C   0  0  0  0  0  0  0  0  0  0  0  0
    4.1628   -0.4249   -0.5195 C   0  0  0  0  0  0  0  0  0  0  0  0
    4.5282    1.2590    1.1741 C   0  0  0  0  0  0  0  0  0  0  0  0
   -4.9646    1.0286   -0.6335 C   0  0  0  0  0  0  0  0  0  0  0  0
    5.0327    0.3818    0.2141 C   0  0  0  0  0  0  0  0  0  0  0  0
   -3.1941   -3.3936    0.8695 C   0  0  0  0  0  0  0  0  0  0  0  0
   -6.1384    0.4510   -0.2915 C   0  0  0  0  0  0  0  0  0  0  0  0
   -7.4774    0.9713   -0.7031 C   0  0  0  0  0  0  0  0  0  0  0  0
    3.6877   -2.0739   -2.1662 C   0  0  0  0  0  0  0  0  0  0  0  0
   -0.0162    2.5970    0.5460 H   0  0  0  0  0  0  0  0  0  0  0  0
    0.6483    0.8610    1.9733 H   0  0  0  0  0  0  0  0  0  0  0  0
    0.5722    0.8444   -1.9290 H   0  0  0  0  0  0  0  0  0  0  0  0
   -0.1511    2.4513   -1.9574 H   0  0  0  0  0  0  0  0  0  0  0  0
    1.5128    2.2597   -1.4072 H   0  0  0  0  0  0  0  0  0  0  0  0
   -2.6665    2.4611   -0.6227 H   0  0  0  0  0  0  0  0  0  0  0  0
    2.0710   -0.9548   -0.8414 H   0  0  0  0  0  0  0  0  0  0  0  0
   -4.3283   -1.4438    0.1192 H   0  0  0  0  0  0  0  0  0  0  0  0
    2.7729    2.0194    2.1490 H   0  0  0  0  0  0  0  0  0  0  0  0
    5.1946    1.8936    1.7520 H   0  0  0  0  0  0  0  0  0  0  0  0
   -4.9908    1.9326   -1.2387 H   0  0  0  0  0  0  0  0  0  0  0  0
   -2.8717   -4.3867    1.1988 H   0  0  0  0  0  0  0  0  0  0  0  0
   -3.6105   -3.5092   -0.1369 H   0  0  0  0  0  0  0  0  0  0  0  0
   -3.9399   -3.0433    1.5910 H   0  0  0  0  0  0  0  0  0  0  0  0
   -6.1725   -0.4352    0.3347 H   0  0  0  0  0  0  0  0  0  0  0  0
    6.8201    0.9498    0.5977 H   0  0  0  0  0  0  0  0  0  0  0  0
   -8.0132    0.2086   -1.2763 H   0  0  0  0  0  0  0  0  0  0  0  0
   -8.0706    1.2166    0.1831 H   0  0  0  0  0  0  0  0  0  0  0  0
   -7.3995    1.8709   -1.3216 H   0  0  0  0  0  0  0  0  0  0  0  0
    4.2451   -2.6992   -2.8714 H   0  0  0  0  0  0  0  0  0  0  0  0
    3.0105   -1.4515   -2.7613 H   0  0  0  0  0  0  0  0  0  0  0  0
    3.1506   -2.7537   -1.4959 H   0  0  0  0  0  0  0  0  0  0  0  0
  1  6  1  0  0  0  0
  1  8  1  0  0  0  0
  2 12  1  0  0  0  0
  2 21  1  0  0  0  0
  3 17  1  0  0  0  0
  3 24  1  0  0  0  0
  4 20  1  0  0  0  0
  4 40  1  0  0  0  0
  5  6  1  0  0  0  0
  5  7  1  0  0  0  0
  5 10  1  0  0  0  0
  5 25  1  0  0  0  0
  6  9  1  0  0  0  0
  6 26  1  0  0  0  0
  7  8  2  0  0  0  0
  7 11  1  0  0  0  0
  8 12  1  0  0  0  0
  9 14  2  0  0  0  0
  9 16  1  0  0  0  0
 10 27  1  0  0  0  0
 10 28  1  0  0  0  0
 10 29  1  0  0  0  0
 11 13  2  0  0  0  0
 11 30  1  0  0  0  0
 12 15  2  0  0  0  0
 13 15  1  0  0  0  0
 13 19  1  0  0  0  0
 14 17  1  0  0  0  0
 14 31  1  0  0  0  0
 15 32  1  0  0  0  0
 16 18  2  0  0  0  0
 16 33  1  0  0  0  0
 17 20  2  0  0  0  0
 18 20  1  0  0  0  0
 18 34  1  0  0  0  0
 19 22  2  0  0  0  0
 19 35  1  0  0  0  0
 21 36  1  0  0  0  0
 21 37  1  0  0  0  0
 21 38  1  0  0  0  0
 22 23  1  0  0  0  0
 22 39  1  0  0  0  0
 23 41  1  0  0  0  0
 23 42  1  0  0  0  0
 23 43  1  0  0  0  0
 24 44  1  0  0  0  0
 24 45  1  0  0  0  0
 24 46  1  0  0  0  0
M  END
> <PUBCHEM_COMPOUND_CID>
5379033

> <PUBCHEM_CONFORMER_RMSD>
0.8

> <PUBCHEM_CONFORMER_DIVERSEORDER>
25
12
13
10
20
22
9
18
24
21
23
26
8
11
3
15
17
1
14
4
7
16
19
5
6
2

> <PUBCHEM_MMFF94_PARTIAL_CHARGES>
31
1 -0.36
11 -0.15
12 0.08
13 0.03
14 -0.15
15 -0.15
16 -0.15
17 0.08
18 -0.15
19 -0.18
2 -0.36
20 0.08
21 0.28
22 -0.29
23 0.14
24 0.28
3 -0.36
30 0.15
31 0.15
32 0.15
33 0.15
34 0.15
35 0.15
39 0.15
4 -0.53
40 0.45
5 0.14
6 0.42
7 -0.14
8 0.08
9 -0.14

> <PUBCHEM_EFFECTIVE_ROTOR_COUNT>
4.6

> <PUBCHEM_PHARMACOPHORE_FEATURES>
8
1 1 acceptor
1 2 acceptor
1 23 hydrophobe
1 3 acceptor
1 4 donor
5 1 5 6 7 8 rings
6 7 8 11 12 13 15 rings
6 9 14 16 17 18 20 rings

> <PUBCHEM_HEAVY_ATOM_COUNT>
24

> <PUBCHEM_ATOM_DEF_STEREO_COUNT>
0

> <PUBCHEM_ATOM_UDEF_STEREO_COUNT>
2

> <PUBCHEM_BOND_DEF_STEREO_COUNT>
1

> <PUBCHEM_BOND_UDEF_STEREO_COUNT>
0

> <PUBCHEM_ISOTOPIC_ATOM_COUNT>
0

> <PUBCHEM_COMPONENT_COUNT>
1

> <PUBCHEM_CACTVS_TAUTO_COUNT>
3

> <PUBCHEM_CONFORMER_ID>
005213D900000019

> <PUBCHEM_MMFF94_ENERGY>
90.2043

> <PUBCHEM_FEATURE_SELFOVERLAP>
40.701

> <PUBCHEM_SHAPE_FINGERPRINT>
105312 117 17822839906502140055
10835480 77 18270958059155912016
11796584 16 18408603669675149058
12236239 1 16588021316744067376
12390115 104 18265613179042185301
12592029 89 16702021941822815453
12596602 18 14620500268716680406
12616971 3 15719388460346095970
12788726 201 18130220445998444137
13140716 1 17969499493217883905
13402501 40 18342741801636113646
13533116 47 17274821328847816895
13544592 145 18412829057814709414
13544653 18 17917438635333284624
13583140 156 17346031306795061529
13617811 41 18040438759397398589
14386348 63 18342461456472821130
14573314 32 18272652320310789716
14790565 3 18119526532020274209
15099037 51 18333448751254772421
15131766 46 14202268056817708519
15183329 4 17632576020543008657
15475509 8 18265344915036451629
15849732 13 17748825216100089733
19141452 34 18334291002683396265
200 152 16845570902774452488
20645477 70 17560802091888641430
20681677 155 18114176462783493499
20771845 171 16660930963637731899
21033648 29 18058154197558722938
21033650 10 17605288280925330508
21267235 1 18187648072352401923
21279426 13 18127974105367850637
21285901 2 18337392621526511781
21307412 95 18269854046249565727
21521239 73 17846204550209706295
21781051 124 17823156630634216355
221357 26 18060415785624552456
2215653 11 18273496758236171341
23402539 116 18113613526057891018
23536379 177 17060336310743304065
23557571 272 18337393850013700082
23559900 14 18341047510289792416
23569914 152 16904383518442523613
23569943 247 18055359024823308811
23576562 1 17458907167077828973
23622692 88 17821442478773406357
3004659 81 18114743720985277530
335352 9 18261106396595492333
340366 18 17895480323111989093
34797466 226 18408325488252649700
34934 24 18186793686443570851
3545911 37 18408037411905533769
3759504 43 17168146745814204715
404807 14 16266047822052627215
4073 2 18339640143747883666
465052 167 16272206392579539860
5385378 56 18189617147301022683
59755656 215 18337105679842195431
59755656 520 18261944207502906439
9709674 26 18342739636930190270

> <PUBCHEM_SHAPE_MULTIPOLES>
470.43
14.42
2.36
1.32
7.12
2.13
-0.41
-1.93
-3.02
1.26
0.14
-1.35
0.37
2.72

> <PUBCHEM_SHAPE_SELFOVERLAP>
1016.762

> <PUBCHEM_SHAPE_VOLUME>
261

> <PUBCHEM_COORDINATE_TYPE>
2
5
10

$$$$
