126324
  -OEChem-08252004023D

 62 64  0     1  0  0  0  0  0999 V2000
    0.3130   -1.6314    0.1343 O   0  0  0  0  0  0  0  0  0  0  0  0
   -1.3796    0.2783   -2.6404 O   0  0  0  0  0  0  0  0  0  0  0  0
    5.4193    0.4463    0.0294 O   0  0  0  0  0  0  0  0  0  0  0  0
   -4.3469   -0.6064    1.9220 O   0  0  0  0  0  0  0  0  0  0  0  0
    4.9697   -2.2048   -0.6743 O   0  0  0  0  0  0  0  0  0  0  0  0
   -5.1275   -1.7293   -0.4979 O   0  0  0  0  0  0  0  0  0  0  0  0
    0.5905    1.1427    0.9056 C   0  0  2  0  0  0  0  0  0  0  0  0
   -0.4257    1.5191   -0.1929 C   0  0  2  0  0  0  0  0  0  0  0  0
    0.8624    2.6533    1.0640 C   0  0  1  0  0  0  0  0  0  0  0  0
   -0.5557    2.8894    0.5042 C   0  0  1  0  0  0  0  0  0  0  0  0
    1.7861    0.2284    0.4676 C   0  0  0  0  0  0  0  0  0  0  0  0
   -1.7153    0.6275   -0.2945 C   0  0  0  0  0  0  0  0  0  0  0  0
    1.0469    3.1672    2.4899 C   0  0  0  0  0  0  0  0  0  0  0  0
   -0.6532    4.1160   -0.4019 C   0  0  0  0  0  0  0  0  0  0  0  0
    1.5714   -1.1105    0.1102 C   0  0  0  0  0  0  0  0  0  0  0  0
   -2.1069    0.0638   -1.5088 C   0  0  0  0  0  0  0  0  0  0  0  0
    3.0914    0.7388    0.4353 C   0  0  0  0  0  0  0  0  0  0  0  0
   -2.4709    0.3999    0.8558 C   0  0  0  0  0  0  0  0  0  0  0  0
    4.1600   -0.0725    0.0535 C   0  0  0  0  0  0  0  0  0  0  0  0
   -3.6178   -0.3914    0.7916 C   0  0  0  0  0  0  0  0  0  0  0  0
    2.6399   -1.9218   -0.2716 C   0  0  0  0  0  0  0  0  0  0  0  0
   -3.2538   -0.7275   -1.5729 C   0  0  0  0  0  0  0  0  0  0  0  0
    3.9343   -1.4027   -0.3000 C   0  0  0  0  0  0  0  0  0  0  0  0
   -4.0092   -0.9551   -0.4227 C   0  0  0  0  0  0  0  0  0  0  0  0
   -0.1179   -2.2292    1.3555 C   0  0  0  0  0  0  0  0  0  0  0  0
   -1.7318    1.4110   -3.4324 C   0  0  0  0  0  0  0  0  0  0  0  0
    5.8514    1.0431   -1.1918 C   0  0  0  0  0  0  0  0  0  0  0  0
   -3.9962   -1.7398    2.7136 C   0  0  0  0  0  0  0  0  0  0  0  0
    5.6288   -2.9363    0.3576 C   0  0  0  0  0  0  0  0  0  0  0  0
   -6.3566   -1.0663   -0.7879 C   0  0  0  0  0  0  0  0  0  0  0  0
    0.1243    0.7441    1.8185 H   0  0  0  0  0  0  0  0  0  0  0  0
    0.0828    1.6237   -1.1645 H   0  0  0  0  0  0  0  0  0  0  0  0
    1.6337    3.0616    0.3971 H   0  0  0  0  0  0  0  0  0  0  0  0
   -1.3296    2.9327    1.2822 H   0  0  0  0  0  0  0  0  0  0  0  0
    2.0116    2.8403    2.8905 H   0  0  0  0  0  0  0  0  0  0  0  0
    1.0283    4.2615    2.5077 H   0  0  0  0  0  0  0  0  0  0  0  0
    0.2611    2.8018    3.1592 H   0  0  0  0  0  0  0  0  0  0  0  0
   -0.5297    5.0339    0.1814 H   0  0  0  0  0  0  0  0  0  0  0  0
   -1.6351    4.1528   -0.8843 H   0  0  0  0  0  0  0  0  0  0  0  0
    0.1095    4.1038   -1.1874 H   0  0  0  0  0  0  0  0  0  0  0  0
    3.3067    1.7624    0.7249 H   0  0  0  0  0  0  0  0  0  0  0  0
   -2.1837    0.8297    1.8111 H   0  0  0  0  0  0  0  0  0  0  0  0
    2.4637   -2.9583   -0.5484 H   0  0  0  0  0  0  0  0  0  0  0  0
   -3.5581   -1.1681   -2.5192 H   0  0  0  0  0  0  0  0  0  0  0  0
   -0.1002   -1.5106    2.1793 H   0  0  0  0  0  0  0  0  0  0  0  0
    0.5143   -3.0888    1.6005 H   0  0  0  0  0  0  0  0  0  0  0  0
   -1.1430   -2.5841    1.2199 H   0  0  0  0  0  0  0  0  0  0  0  0
   -1.0013    1.5040   -4.2407 H   0  0  0  0  0  0  0  0  0  0  0  0
   -1.7139    2.3293   -2.8376 H   0  0  0  0  0  0  0  0  0  0  0  0
   -2.7242    1.2705   -3.8720 H   0  0  0  0  0  0  0  0  0  0  0  0
    5.8451    0.3084   -2.0032 H   0  0  0  0  0  0  0  0  0  0  0  0
    6.8747    1.4031   -1.0540 H   0  0  0  0  0  0  0  0  0  0  0  0
    5.2126    1.8937   -1.4498 H   0  0  0  0  0  0  0  0  0  0  0  0
   -2.9809   -1.6304    3.1074 H   0  0  0  0  0  0  0  0  0  0  0  0
   -4.0751   -2.6609    2.1276 H   0  0  0  0  0  0  0  0  0  0  0  0
   -4.6928   -1.7992    3.5543 H   0  0  0  0  0  0  0  0  0  0  0  0
    6.0659   -2.2548    1.0942 H   0  0  0  0  0  0  0  0  0  0  0  0
    6.4324   -3.5218   -0.0973 H   0  0  0  0  0  0  0  0  0  0  0  0
    4.9301   -3.6218    0.8476 H   0  0  0  0  0  0  0  0  0  0  0  0
   -6.3081   -0.5804   -1.7676 H   0  0  0  0  0  0  0  0  0  0  0  0
   -6.5887   -0.3286   -0.0133 H   0  0  0  0  0  0  0  0  0  0  0  0
   -7.1532   -1.8151   -0.8076 H   0  0  0  0  0  0  0  0  0  0  0  0
  1 15  1  0  0  0  0
  1 25  1  0  0  0  0
  2 16  1  0  0  0  0
  2 26  1  0  0  0  0
  3 19  1  0  0  0  0
  3 27  1  0  0  0  0
  4 20  1  0  0  0  0
  4 28  1  0  0  0  0
  5 23  1  0  0  0  0
  5 29  1  0  0  0  0
  6 24  1  0  0  0  0
  6 30  1  0  0  0  0
  7  8  1  0  0  0  0
  7  9  1  0  0  0  0
  7 11  1  0  0  0  0
  7 31  1  0  0  0  0
  8 10  1  0  0  0  0
  8 12  1  0  0  0  0
  8 32  1  0  0  0  0
  9 10  1  0  0  0  0
  9 13  1  0  0  0  0
  9 33  1  0  0  0  0
 10 14  1  0  0  0  0
 10 34  1  0  0  0  0
 11 15  1  0  0  0  0
 11 17  2  0  0  0  0
 12 16  1  0  0  0  0
 12 18  2  0  0  0  0
 13 35  1  0  0  0  0
 13 36  1  0  0  0  0
 13 37  1  0  0  0  0
 14 38  1  0  0  0  0
 14 39  1  0  0  0  0
 14 40  1  0  0  0  0
 15 21  2  0  0  0  0
 16 22  2  0  0  0  0
 17 19  1  0  0  0  0
 17 41  1  0  0  0  0
 18 20  1  0  0  0  0
 18 42  1  0  0  0  0
 19 23  2  0  0  0  0
 20 24  2  0  0  0  0
 21 23  1  0  0  0  0
 21 43  1  0  0  0  0
 22 24  1  0  0  0  0
 22 44  1  0  0  0  0
 25 45  1  0  0  0  0
 25 46  1  0  0  0  0
 25 47  1  0  0  0  0
 26 48  1  0  0  0  0
 26 49  1  0  0  0  0
 26 50  1  0  0  0  0
 27 51  1  0  0  0  0
 27 52  1  0  0  0  0
 27 53  1  0  0  0  0
 28 54  1  0  0  0  0
 28 55  1  0  0  0  0
 28 56  1  0  0  0  0
 29 57  1  0  0  0  0
 29 58  1  0  0  0  0
 29 59  1  0  0  0  0
 30 60  1  0  0  0  0
 30 61  1  0  0  0  0
 30 62  1  0  0  0  0
M  END
> <PUBCHEM_COMPOUND_CID>
126324

> <PUBCHEM_CONFORMER_RMSD>
1

> <PUBCHEM_CONFORMER_DIVERSEORDER>
1
28
42
59
56
4
6
54
29
3
55
27
51
9
16
57
45
35
20
25
61
38
52
32
24
7
31
23
63
26
14
33
34
10
5
15
18
53
48
36
44
47
60
39
17
49
19
21
46
13
50
41
11
62
43
8
37
30
12
58
40
22
2

> <PUBCHEM_MMFF94_PARTIAL_CHARGES>
30
1 -0.36
11 -0.11
12 -0.11
15 0.08
16 0.08
17 -0.15
18 -0.15
19 0.08
2 -0.36
20 0.08
21 -0.15
22 -0.15
23 0.08
24 0.08
25 0.28
26 0.28
27 0.28
28 0.28
29 0.28
3 -0.36
30 0.28
4 -0.36
41 0.15
42 0.15
43 0.15
44 0.15
5 -0.36
6 -0.36
7 0.11
8 0.11

> <PUBCHEM_EFFECTIVE_ROTOR_COUNT>
8.8

> <PUBCHEM_PHARMACOPHORE_FEATURES>
9
1 1 acceptor
1 2 acceptor
1 3 acceptor
1 4 acceptor
1 5 acceptor
1 6 acceptor
4 7 8 9 10 rings
6 11 15 17 19 21 23 rings
6 12 16 18 20 22 24 rings

> <PUBCHEM_HEAVY_ATOM_COUNT>
30

> <PUBCHEM_ATOM_DEF_STEREO_COUNT>
0

> <PUBCHEM_ATOM_UDEF_STEREO_COUNT>
4

> <PUBCHEM_BOND_DEF_STEREO_COUNT>
0

> <PUBCHEM_BOND_UDEF_STEREO_COUNT>
0

> <PUBCHEM_ISOTOPIC_ATOM_COUNT>
0

> <PUBCHEM_COMPONENT_COUNT>
1

> <PUBCHEM_CACTVS_TAUTO_COUNT>
1

> <PUBCHEM_CONFORMER_ID>
0001ED7400000001

> <PUBCHEM_MMFF94_ENERGY>
148.5908

> <PUBCHEM_FEATURE_SELFOVERLAP>
45.685

> <PUBCHEM_SHAPE_FINGERPRINT>
10764073 3 14688955690478642501
10928967 22 17774993558444854622
11049842 53 16230786570017248753
12236239 1 17417812893950864355
12422481 6 17058948653432186182
12553582 1 17917415537088922204
12788726 201 17695325002948208213
13533116 47 17986669475640038195
13544653 18 18408890628564953808
13911987 19 18188500176140545302
13965767 371 17058120846421782185
14347332 77 18128827339803174366
14787075 74 18409452509435554314
14955137 171 17274831310441736980
15324884 4 17533487092281989193
15537594 2 18060707195345337204
16114785 44 14403200302279176896
17349148 13 18338230446094346010
17492 89 18127129667985528510
1813 80 18131081445186239364
20600515 1 17823727259324608631
21641784 216 18263099776801614252
22182313 1 18122592137509994381
22393880 68 17532925009653973334
22950370 63 18202568371425173518
23419403 2 16518819239818322184
23557571 272 17530953692341781245
23559900 14 18336539538807187841
23598288 3 17915457199268625092
3380486 145 18118708701306236634
3737641 26 18059307456803282222
5104073 3 18269838610806270072
550186 7 14045198298278579770
6823239 73 16589148410920908369
7970288 3 18271520922999328478

> <PUBCHEM_SHAPE_MULTIPOLES>
582.17
11.52
3.58
2.25
4.01
2.54
-0.63
-9.05
-1.6
1.81
1.17
-2.5
0.7
1

> <PUBCHEM_SHAPE_SELFOVERLAP>
1223.718

> <PUBCHEM_SHAPE_VOLUME>
333.5

> <PUBCHEM_COORDINATE_TYPE>
2
5
10

$$$$
