12302240
  -OEChem-08252004413D

 43 44  0     1  0  0  0  0  0999 V2000
   -0.1256   -0.4295   -1.5513 O   0  0  0  0  0  0  0  0  0  0  0  0
    1.0056    3.0814    0.8729 O   0  0  0  0  0  0  0  0  0  0  0  0
    0.0273   -0.4722   -0.1279 C   0  0  1  0  0  0  0  0  0  0  0  0
    0.9011    0.7433    0.2964 C   0  0  2  0  0  0  0  0  0  0  0  0
   -1.3797   -0.4146    0.5400 C   0  0  1  0  0  0  0  0  0  0  0  0
    0.1972    2.1272    0.1656 C   0  0  1  0  0  0  0  0  0  0  0  0
   -2.0550    0.9516    0.3486 C   0  0  0  0  0  0  0  0  0  0  0  0
   -1.1718    2.0810    0.8633 C   0  0  0  0  0  0  0  0  0  0  0  0
    2.3017    0.7200   -0.3735 C   0  0  0  0  0  0  0  0  0  0  0  0
    0.7447   -1.8042    0.2478 C   0  0  0  0  0  0  0  0  0  0  0  0
   -2.3348   -1.5147    0.0588 C   0  0  0  0  0  0  0  0  0  0  0  0
    2.8211   -0.6803   -0.7127 C   0  0  0  0  0  0  0  0  0  0  0  0
    2.2519   -1.7166    0.2058 C   0  0  0  0  0  0  0  0  0  0  0  0
    0.0452    2.6605   -1.2673 C   0  0  0  0  0  0  0  0  0  0  0  0
   -3.6174   -1.4995    0.8825 C   0  0  0  0  0  0  0  0  0  0  0  0
   -2.6395   -1.3393   -1.4245 C   0  0  0  0  0  0  0  0  0  0  0  0
    3.0279   -2.4941    0.9754 C   0  0  0  0  0  0  0  0  0  0  0  0
    1.0968    0.6146    1.3742 H   0  0  0  0  0  0  0  0  0  0  0  0
   -1.2284   -0.5473    1.6217 H   0  0  0  0  0  0  0  0  0  0  0  0
   -2.9943    1.0103    0.9075 H   0  0  0  0  0  0  0  0  0  0  0  0
   -2.2928    1.1755   -0.6924 H   0  0  0  0  0  0  0  0  0  0  0  0
   -1.6884    3.0427    0.7480 H   0  0  0  0  0  0  0  0  0  0  0  0
   -1.0257    1.9665    1.9463 H   0  0  0  0  0  0  0  0  0  0  0  0
    3.0154    1.2095    0.3024 H   0  0  0  0  0  0  0  0  0  0  0  0
    2.3222    1.3006   -1.2997 H   0  0  0  0  0  0  0  0  0  0  0  0
    0.4313   -2.6010   -0.4388 H   0  0  0  0  0  0  0  0  0  0  0  0
    0.4483   -2.1053    1.2611 H   0  0  0  0  0  0  0  0  0  0  0  0
   -1.8728   -2.4977    0.2079 H   0  0  0  0  0  0  0  0  0  0  0  0
    3.9178   -0.6677   -0.6758 H   0  0  0  0  0  0  0  0  0  0  0  0
    2.5724   -0.9381   -1.7485 H   0  0  0  0  0  0  0  0  0  0  0  0
   -0.4949    3.6155   -1.2577 H   0  0  0  0  0  0  0  0  0  0  0  0
    1.0108    2.8880   -1.7287 H   0  0  0  0  0  0  0  0  0  0  0  0
   -0.5015    1.9807   -1.9236 H   0  0  0  0  0  0  0  0  0  0  0  0
    0.5425   -0.9907   -1.9741 H   0  0  0  0  0  0  0  0  0  0  0  0
    1.8367    3.2023    0.3838 H   0  0  0  0  0  0  0  0  0  0  0  0
   -4.2808   -0.6691    0.6217 H   0  0  0  0  0  0  0  0  0  0  0  0
   -4.1865   -2.4185    0.6996 H   0  0  0  0  0  0  0  0  0  0  0  0
   -3.4067   -1.4591    1.9563 H   0  0  0  0  0  0  0  0  0  0  0  0
   -2.9029   -0.3353   -1.7540 H   0  0  0  0  0  0  0  0  0  0  0  0
   -3.5114   -1.9587   -1.6771 H   0  0  0  0  0  0  0  0  0  0  0  0
   -1.8477   -1.7403   -2.0619 H   0  0  0  0  0  0  0  0  0  0  0  0
    2.5970   -3.2305    1.6455 H   0  0  0  0  0  0  0  0  0  0  0  0
    4.1094   -2.4135    0.9512 H   0  0  0  0  0  0  0  0  0  0  0  0
  1  3  1  0  0  0  0
  1 34  1  0  0  0  0
  2  6  1  0  0  0  0
  2 35  1  0  0  0  0
  3  4  1  0  0  0  0
  3  5  1  0  0  0  0
  3 10  1  0  0  0  0
  4  6  1  0  0  0  0
  4  9  1  0  0  0  0
  4 18  1  0  0  0  0
  5  7  1  0  0  0  0
  5 11  1  0  0  0  0
  5 19  1  0  0  0  0
  6  8  1  0  0  0  0
  6 14  1  0  0  0  0
  7  8  1  0  0  0  0
  7 20  1  0  0  0  0
  7 21  1  0  0  0  0
  8 22  1  0  0  0  0
  8 23  1  0  0  0  0
  9 12  1  0  0  0  0
  9 24  1  0  0  0  0
  9 25  1  0  0  0  0
 10 13  1  0  0  0  0
 10 26  1  0  0  0  0
 10 27  1  0  0  0  0
 11 15  1  0  0  0  0
 11 16  1  0  0  0  0
 11 28  1  0  0  0  0
 12 13  1  0  0  0  0
 12 29  1  0  0  0  0
 12 30  1  0  0  0  0
 13 17  2  0  0  0  0
 14 31  1  0  0  0  0
 14 32  1  0  0  0  0
 14 33  1  0  0  0  0
 15 36  1  0  0  0  0
 15 37  1  0  0  0  0
 15 38  1  0  0  0  0
 16 39  1  0  0  0  0
 16 40  1  0  0  0  0
 16 41  1  0  0  0  0
 17 42  1  0  0  0  0
 17 43  1  0  0  0  0
M  END
> <PUBCHEM_COMPOUND_CID>
12302240

> <PUBCHEM_CONFORMER_RMSD>
0.6

> <PUBCHEM_CONFORMER_DIVERSEORDER>
1
2

> <PUBCHEM_MMFF94_PARTIAL_CHARGES>
12
1 -0.68
10 0.14
12 0.14
13 -0.28
17 -0.3
2 -0.68
3 0.28
34 0.4
35 0.4
42 0.15
43 0.15
6 0.28

> <PUBCHEM_EFFECTIVE_ROTOR_COUNT>
2.4

> <PUBCHEM_PHARMACOPHORE_FEATURES>
7
1 1 acceptor
1 1 donor
1 2 acceptor
1 2 donor
3 11 15 16 hydrophobe
6 3 4 5 6 7 8 rings
6 3 4 9 10 12 13 rings

> <PUBCHEM_HEAVY_ATOM_COUNT>
17

> <PUBCHEM_ATOM_DEF_STEREO_COUNT>
4

> <PUBCHEM_ATOM_UDEF_STEREO_COUNT>
0

> <PUBCHEM_BOND_DEF_STEREO_COUNT>
0

> <PUBCHEM_BOND_UDEF_STEREO_COUNT>
0

> <PUBCHEM_ISOTOPIC_ATOM_COUNT>
0

> <PUBCHEM_COMPONENT_COUNT>
1

> <PUBCHEM_CACTVS_TAUTO_COUNT>
1

> <PUBCHEM_CONFORMER_ID>
00BBB7A000000001

> <PUBCHEM_MMFF94_ENERGY>
63.5211

> <PUBCHEM_FEATURE_SELFOVERLAP>
35.536

> <PUBCHEM_SHAPE_FINGERPRINT>
1 1 17905885134377967391
10967382 1 18195252349612788163
11578080 2 17822560638606123060
12423570 1 9582979903347345102
12553582 1 18413390946922466287
13132413 78 18338529589727677405
13140716 1 18338799983667529234
13538477 17 18119254952421100270
14178342 30 17479736465319738539
14817 1 15960074098049414837
15001771 113 18335988553989217882
15042514 8 17977673008944366491
15076042 46 17907583519276631498
15375462 189 18337408109468802627
15490181 8 17043168840422875956
15852999 172 16311620267867286341
15906896 17 17836637526999022879
16945 1 18268707401470561603
19868273 325 18340492170569701694
20510252 161 17479449041665688384
20645477 70 18055917847407701823
20871998 184 18056762022612201055
21041028 32 18341907298185644705
21296965 67 18410294700840520923
21501502 16 18336552594948734874
21524375 3 17334771375797814269
21731228 192 17045138598492817064
22112679 90 18342182111399190146
2255824 54 18048886478536167207
2334 1 18410858758779278146
23388829 49 18342457100922321760
23419403 2 17758345891332023340
23526113 38 17751053951707553127
23557571 272 18128811937728671258
23559900 14 17118328698900467446
23598291 2 17915188042606136215
23598294 1 18268722609997606458
257057 1 18338222795744572955
2748010 2 18412538795287360468
34934 24 18411983528998971680
458136 41 17612894985549023275
58807428 26 16754376008381290416
6338986 31 18269537421133578607
7364860 26 18127417971210510273
81228 2 18122905317734219979

> <PUBCHEM_SHAPE_MULTIPOLES>
338.11
4.42
3.31
1.19
0.25
1.83
0.32
-3.73
-0.45
-0.42
-0.47
0.29
0.04
-0.5

> <PUBCHEM_SHAPE_SELFOVERLAP>
693.638

> <PUBCHEM_SHAPE_VOLUME>
194.1

> <PUBCHEM_COORDINATE_TYPE>
2
5
10

$$$$
