91751248
  -OEChem-08252004523D

 34 36  0     1  0  0  0  0  0999 V2000
   -1.5295    2.5864   -0.1792 O   0  0  0  0  0  0  0  0  0  0  0  0
    1.7148   -0.0094    0.5674 C   0  0  2  0  0  0  0  0  0  0  0  0
    2.0127    1.3953   -0.0716 C   0  0  0  0  0  0  0  0  0  0  0  0
    2.7173   -1.0386    0.0474 C   0  0  0  0  0  0  0  0  0  0  0  0
    0.2855   -0.3986    0.3170 C   0  0  0  0  0  0  0  0  0  0  0  0
    0.9404    2.4833    0.2297 C   0  0  0  0  0  0  0  0  0  0  0  0
   -0.6918    0.5456    0.0960 C   0  0  0  0  0  0  0  0  0  0  0  0
   -0.3910    1.8693    0.0543 C   0  0  0  0  0  0  0  0  0  0  0  0
   -2.0675    0.3913   -0.1164 C   0  0  0  0  0  0  0  0  0  0  0  0
   -0.3448   -1.6631    0.3266 C   0  0  0  0  0  0  0  0  0  0  0  0
    2.5383   -1.2490   -1.4539 C   0  0  0  0  0  0  0  0  0  0  0  0
    4.1453   -0.6017    0.3635 C   0  0  0  0  0  0  0  0  0  0  0  0
   -1.7725   -1.8655    0.1061 C   0  0  0  0  0  0  0  0  0  0  0  0
   -2.7217   -0.8303   -0.1335 C   0  0  0  0  0  0  0  0  0  0  0  0
   -2.5590    1.6638   -0.2842 C   0  0  0  0  0  0  0  0  0  0  0  0
   -2.2765   -3.2787    0.1308 C   0  0  0  0  0  0  0  0  0  0  0  0
    1.8313    0.0862    1.6557 H   0  0  0  0  0  0  0  0  0  0  0  0
    2.0677    1.3180   -1.1634 H   0  0  0  0  0  0  0  0  0  0  0  0
    2.9789    1.7814    0.2709 H   0  0  0  0  0  0  0  0  0  0  0  0
    2.5442   -1.9971    0.5530 H   0  0  0  0  0  0  0  0  0  0  0  0
    1.0754    3.3407   -0.4371 H   0  0  0  0  0  0  0  0  0  0  0  0
    1.0502    2.8317    1.2626 H   0  0  0  0  0  0  0  0  0  0  0  0
    0.2638   -2.5481    0.5141 H   0  0  0  0  0  0  0  0  0  0  0  0
    2.8699   -0.3930   -2.0487 H   0  0  0  0  0  0  0  0  0  0  0  0
    4.8393   -1.4256    0.1613 H   0  0  0  0  0  0  0  0  0  0  0  0
    4.2551   -0.3342    1.4197 H   0  0  0  0  0  0  0  0  0  0  0  0
    3.1596   -2.0949   -1.7735 H   0  0  0  0  0  0  0  0  0  0  0  0
    4.4760    0.2435   -0.2481 H   0  0  0  0  0  0  0  0  0  0  0  0
    1.5141   -1.4938   -1.7455 H   0  0  0  0  0  0  0  0  0  0  0  0
   -3.7775   -0.9866   -0.2949 H   0  0  0  0  0  0  0  0  0  0  0  0
   -3.5351    2.0882   -0.4709 H   0  0  0  0  0  0  0  0  0  0  0  0
   -1.8569   -3.8408   -0.7097 H   0  0  0  0  0  0  0  0  0  0  0  0
   -1.9905   -3.7663    1.0685 H   0  0  0  0  0  0  0  0  0  0  0  0
   -3.3681   -3.3235    0.0557 H   0  0  0  0  0  0  0  0  0  0  0  0
  1  8  1  0  0  0  0
  1 15  1  0  0  0  0
  2  3  1  0  0  0  0
  2  4  1  0  0  0  0
  2  5  1  0  0  0  0
  2 17  1  0  0  0  0
  3  6  1  0  0  0  0
  3 18  1  0  0  0  0
  3 19  1  0  0  0  0
  4 11  1  0  0  0  0
  4 12  1  0  0  0  0
  4 20  1  0  0  0  0
  5  7  1  0  0  0  0
  5 10  2  0  0  0  0
  6  8  1  0  0  0  0
  6 21  1  0  0  0  0
  6 22  1  0  0  0  0
  7  8  2  0  0  0  0
  7  9  1  0  0  0  0
  9 14  1  0  0  0  0
  9 15  2  0  0  0  0
 10 13  1  0  0  0  0
 10 23  1  0  0  0  0
 11 24  1  0  0  0  0
 11 27  1  0  0  0  0
 11 29  1  0  0  0  0
 12 25  1  0  0  0  0
 12 26  1  0  0  0  0
 12 28  1  0  0  0  0
 13 14  2  0  0  0  0
 13 16  1  0  0  0  0
 14 30  1  0  0  0  0
 15 31  1  0  0  0  0
 16 32  1  0  0  0  0
 16 33  1  0  0  0  0
 16 34  1  0  0  0  0
M  END
> <PUBCHEM_COMPOUND_CID>
91751248

> <PUBCHEM_CONFORMER_RMSD>
0.6

> <PUBCHEM_CONFORMER_DIVERSEORDER>
1
3
2
4

> <PUBCHEM_MMFF94_PARTIAL_CHARGES>
13
1 -0.28
10 -0.15
13 -0.14
14 -0.15
15 -0.01
16 0.14
2 0.14
23 0.15
30 0.15
31 0.15
5 -0.14
6 0.18
8 -0.04

> <PUBCHEM_EFFECTIVE_ROTOR_COUNT>
1.6

> <PUBCHEM_PHARMACOPHORE_FEATURES>
5
1 1 acceptor
3 4 11 12 hydrophobe
5 1 7 8 9 15 rings
6 2 3 5 6 7 8 rings
6 5 7 9 10 13 14 rings

> <PUBCHEM_HEAVY_ATOM_COUNT>
16

> <PUBCHEM_ATOM_DEF_STEREO_COUNT>
0

> <PUBCHEM_ATOM_UDEF_STEREO_COUNT>
1

> <PUBCHEM_BOND_DEF_STEREO_COUNT>
0

> <PUBCHEM_BOND_UDEF_STEREO_COUNT>
0

> <PUBCHEM_ISOTOPIC_ATOM_COUNT>
0

> <PUBCHEM_COMPONENT_COUNT>
1

> <PUBCHEM_CACTVS_TAUTO_COUNT>
1

> <PUBCHEM_CONFORMER_ID>
0578035000000001

> <PUBCHEM_MMFF94_ENERGY>
51.1267

> <PUBCHEM_FEATURE_SELFOVERLAP>
25.632

> <PUBCHEM_SHAPE_FINGERPRINT>
10693767 8 17697008381405130087
10967382 1 18194117408852495947
11578080 2 17025677526603067900
11680986 33 18267855271485418121
116883 192 18341611572629037991
12524768 44 18195246843644082147
12553582 1 18194128627302545290
13140716 1 18338239387514552115
14614273 12 17755296773336152965
14790565 3 18123483678010116209
15001771 113 18339932635247201593
15309172 13 18050576144503696569
16945 1 18409729525951290659
17990270 104 18122060072496930970
193761 8 18265894833599952737
19591789 44 17907587930408679987
19868273 325 18408886226228724182
20028762 73 18202004331373518255
20510252 161 18127689327202489616
20645476 183 17825125726197973014
20645477 70 16968005122317357943
20871998 22 18049445043533941547
20905425 154 18195251246159763988
21197605 99 15092561670378015898
21501502 16 18337959016180795312
22213442 358 18339923822200981450
22721475 48 18341617052621938690
22802520 49 18342178911616750083
23184049 29 18337105778014831706
2334 1 18121499321730340947
23402539 116 18269819944139968166
23419403 2 16180358723139409369
23557571 272 18272376343588141006
23559900 14 18197777709881387310
2748010 2 18265889349137348451
3060560 45 18047455739278697285
43471831 8 17760367695478105267
54173680 148 18409727361388240706
7364860 26 18126284392081730856
77492 1 17458629952387025474
81228 2 18410859862712512979
8809292 202 18408603677652887298
9709674 26 18271243829310700694

> <PUBCHEM_SHAPE_MULTIPOLES>
323.4
4.94
3.18
0.8
2.97
0.03
-0.17
-2.02
-0.2
-1.91
-0.02
0.38
-0.19
0.45

> <PUBCHEM_SHAPE_SELFOVERLAP>
709.096

> <PUBCHEM_SHAPE_VOLUME>
177.2

> <PUBCHEM_COORDINATE_TYPE>
2
5
10

$$$$
