230736
  -OEChem-08252004243D

 33 32  0     1  0  0  0  0  0999 V2000
   -0.3415   -1.6368    0.0252 O   0  0  0  0  0  0  0  0  0  0  0  0
   -1.9889    0.1704   -0.0095 C   0  0  0  0  0  0  0  0  0  0  0  0
   -0.5341   -0.2771   -0.3750 C   0  0  1  0  0  0  0  0  0  0  0  0
    2.0516    0.1261   -0.0020 C   0  0  0  0  0  0  0  0  0  0  0  0
    0.5817    0.5602    0.2879 C   0  0  0  0  0  0  0  0  0  0  0  0
   -3.0445   -0.7497   -0.6504 C   0  0  0  0  0  0  0  0  0  0  0  0
   -2.2379    1.6076   -0.5197 C   0  0  0  0  0  0  0  0  0  0  0  0
   -2.1902    0.1776    1.5186 C   0  0  0  0  0  0  0  0  0  0  0  0
    2.3585   -1.2906    0.5063 C   0  0  0  0  0  0  0  0  0  0  0  0
    2.3580    0.1989   -1.5085 C   0  0  0  0  0  0  0  0  0  0  0  0
    2.9874    1.1134    0.7270 C   0  0  0  0  0  0  0  0  0  0  0  0
   -0.4218   -0.2464   -1.4642 H   0  0  0  0  0  0  0  0  0  0  0  0
    0.4602    0.5281    1.3773 H   0  0  0  0  0  0  0  0  0  0  0  0
    0.4691    1.6082   -0.0127 H   0  0  0  0  0  0  0  0  0  0  0  0
   -4.0616   -0.4068   -0.4295 H   0  0  0  0  0  0  0  0  0  0  0  0
   -2.9562   -1.7764   -0.2790 H   0  0  0  0  0  0  0  0  0  0  0  0
   -2.9302   -0.7766   -1.7397 H   0  0  0  0  0  0  0  0  0  0  0  0
   -1.6113    2.3430   -0.0056 H   0  0  0  0  0  0  0  0  0  0  0  0
   -2.0366    1.6823   -1.5941 H   0  0  0  0  0  0  0  0  0  0  0  0
   -3.2797    1.9078   -0.3566 H   0  0  0  0  0  0  0  0  0  0  0  0
   -1.5533    0.9108    2.0225 H   0  0  0  0  0  0  0  0  0  0  0  0
   -3.2249    0.4455    1.7666 H   0  0  0  0  0  0  0  0  0  0  0  0
   -2.0045   -0.8052    1.9626 H   0  0  0  0  0  0  0  0  0  0  0  0
    3.4412   -1.4663    0.5294 H   0  0  0  0  0  0  0  0  0  0  0  0
    1.9468   -2.0695   -0.1418 H   0  0  0  0  0  0  0  0  0  0  0  0
    1.9870   -1.4406    1.5257 H   0  0  0  0  0  0  0  0  0  0  0  0
    1.7778   -0.5362   -2.0757 H   0  0  0  0  0  0  0  0  0  0  0  0
    3.4173   -0.0029   -1.7052 H   0  0  0  0  0  0  0  0  0  0  0  0
    2.1284    1.1919   -1.9108 H   0  0  0  0  0  0  0  0  0  0  0  0
    2.8243    1.0846    1.8104 H   0  0  0  0  0  0  0  0  0  0  0  0
    2.8183    2.1425    0.3902 H   0  0  0  0  0  0  0  0  0  0  0  0
    4.0413    0.8751    0.5432 H   0  0  0  0  0  0  0  0  0  0  0  0
   -0.3470   -1.6768    0.9958 H   0  0  0  0  0  0  0  0  0  0  0  0
  1  3  1  0  0  0  0
  1 33  1  0  0  0  0
  2  3  1  0  0  0  0
  2  6  1  0  0  0  0
  2  7  1  0  0  0  0
  2  8  1  0  0  0  0
  3  5  1  0  0  0  0
  3 12  1  0  0  0  0
  4  5  1  0  0  0  0
  4  9  1  0  0  0  0
  4 10  1  0  0  0  0
  4 11  1  0  0  0  0
  5 13  1  0  0  0  0
  5 14  1  0  0  0  0
  6 15  1  0  0  0  0
  6 16  1  0  0  0  0
  6 17  1  0  0  0  0
  7 18  1  0  0  0  0
  7 19  1  0  0  0  0
  7 20  1  0  0  0  0
  8 21  1  0  0  0  0
  8 22  1  0  0  0  0
  8 23  1  0  0  0  0
  9 24  1  0  0  0  0
  9 25  1  0  0  0  0
  9 26  1  0  0  0  0
 10 27  1  0  0  0  0
 10 28  1  0  0  0  0
 10 29  1  0  0  0  0
 11 30  1  0  0  0  0
 11 31  1  0  0  0  0
 11 32  1  0  0  0  0
M  END
> <PUBCHEM_COMPOUND_CID>
230736

> <PUBCHEM_CONFORMER_RMSD>
0.6

> <PUBCHEM_CONFORMER_DIVERSEORDER>
1
4
6
2
5
3

> <PUBCHEM_MMFF94_PARTIAL_CHARGES>
3
1 -0.68
3 0.28
33 0.4

> <PUBCHEM_EFFECTIVE_ROTOR_COUNT>
3

> <PUBCHEM_PHARMACOPHORE_FEATURES>
4
1 1 acceptor
1 1 donor
4 2 6 7 8 hydrophobe
4 4 9 10 11 hydrophobe

> <PUBCHEM_HEAVY_ATOM_COUNT>
11

> <PUBCHEM_ATOM_DEF_STEREO_COUNT>
0

> <PUBCHEM_ATOM_UDEF_STEREO_COUNT>
1

> <PUBCHEM_BOND_DEF_STEREO_COUNT>
0

> <PUBCHEM_BOND_UDEF_STEREO_COUNT>
0

> <PUBCHEM_ISOTOPIC_ATOM_COUNT>
0

> <PUBCHEM_COMPONENT_COUNT>
1

> <PUBCHEM_CACTVS_TAUTO_COUNT>
1

> <PUBCHEM_CONFORMER_ID>
0003855000000001

> <PUBCHEM_MMFF94_ENERGY>
35.5946

> <PUBCHEM_FEATURE_SELFOVERLAP>
20.297

> <PUBCHEM_SHAPE_FINGERPRINT>
10857977 72 17604158111335348057
12932764 1 18412834563899479372
14325111 11 18411411800206113813
14390081 3 18410851057839677781
15775835 57 18412825776454427073
16945 1 18187654651234535585
170605 34 17917145126021890376
18186145 218 18059861640316774608
19973954 147 17531256023452769077
20645464 45 18202002152964638752
20653085 51 16701199515736096963
21028194 46 18410855442969567031
21040471 1 18407761443282514310
21524375 3 17698714037361815152
230 275 18334859445958121940
23552423 10 18041278755598913210
3248919 1 17313104150505245392
369184 2 18342452638699234129
5084963 1 18272931635129505289
8030462 33 18259706687626980684
81228 2 17907588269252751666

> <PUBCHEM_SHAPE_MULTIPOLES>
220.51
5.09
1.4
1.19
0.23
0.06
-0.01
-0.47
0.04
-0.03
-0.01
0.05
-0.1
0

> <PUBCHEM_SHAPE_SELFOVERLAP>
409.064

> <PUBCHEM_SHAPE_VOLUME>
141

> <PUBCHEM_COORDINATE_TYPE>
2
5
10

$$$$
