5321293
  -OEChem-08252004553D

 40 40  0     1  0  0  0  0  0999 V2000
   -1.0293   -1.7778   -0.5165 O   0  0  0  0  0  0  0  0  0  0  0  0
    1.2121    0.9454   -0.0495 C   0  0  2  0  0  0  0  0  0  0  0  0
   -1.7277    0.3583    0.3644 C   0  0  2  0  0  0  0  0  0  0  0  0
    0.7304   -0.4323    0.4869 C   0  0  1  0  0  0  0  0  0  0  0  0
    0.1699    2.0339    0.3173 C   0  0  0  0  0  0  0  0  0  0  0  0
   -1.2430    1.7066   -0.1692 C   0  0  0  0  0  0  0  0  0  0  0  0
   -0.7038   -0.7216    0.0245 C   0  0  0  0  0  0  0  0  0  0  0  0
   -3.1105    0.0257   -0.1882 C   0  0  0  0  0  0  0  0  0  0  0  0
    1.4351    0.9307   -1.5779 C   0  0  0  0  0  0  0  0  0  0  0  0
    1.6244   -1.5829    0.1322 C   0  0  0  0  0  0  0  0  0  0  0  0
    2.5213    1.3191    0.6117 C   0  0  0  0  0  0  0  0  0  0  0  0
   -3.6041   -1.3098    0.3649 C   0  0  0  0  0  0  0  0  0  0  0  0
   -4.1027    1.1404    0.1379 C   0  0  0  0  0  0  0  0  0  0  0  0
    2.7069   -1.9080    1.1183 C   0  0  0  0  0  0  0  0  0  0  0  0
    1.4647   -2.2815   -1.0016 C   0  0  0  0  0  0  0  0  0  0  0  0
    3.6564    1.5538   -0.0552 C   0  0  0  0  0  0  0  0  0  0  0  0
   -1.7764    0.4037    1.4612 H   0  0  0  0  0  0  0  0  0  0  0  0
    0.6523   -0.3900    1.5841 H   0  0  0  0  0  0  0  0  0  0  0  0
    0.4718    3.0050   -0.0972 H   0  0  0  0  0  0  0  0  0  0  0  0
    0.1375    2.1655    1.4082 H   0  0  0  0  0  0  0  0  0  0  0  0
   -1.8897    2.5192    0.1788 H   0  0  0  0  0  0  0  0  0  0  0  0
   -1.2743    1.7233   -1.2649 H   0  0  0  0  0  0  0  0  0  0  0  0
   -3.0661   -0.0686   -1.2816 H   0  0  0  0  0  0  0  0  0  0  0  0
    1.6693    1.9305   -1.9652 H   0  0  0  0  0  0  0  0  0  0  0  0
    2.2239    0.2444   -1.9044 H   0  0  0  0  0  0  0  0  0  0  0  0
    0.5283    0.6107   -2.1041 H   0  0  0  0  0  0  0  0  0  0  0  0
    2.5351    1.3959    1.6969 H   0  0  0  0  0  0  0  0  0  0  0  0
   -3.3896   -1.4113    1.4343 H   0  0  0  0  0  0  0  0  0  0  0  0
   -4.6910   -1.3955    0.2461 H   0  0  0  0  0  0  0  0  0  0  0  0
   -3.1950   -2.1765   -0.1580 H   0  0  0  0  0  0  0  0  0  0  0  0
   -4.0958    1.3858    1.2054 H   0  0  0  0  0  0  0  0  0  0  0  0
   -5.1232    0.8405   -0.1262 H   0  0  0  0  0  0  0  0  0  0  0  0
   -3.8982    2.0513   -0.4326 H   0  0  0  0  0  0  0  0  0  0  0  0
    3.4658   -1.1254    1.1676 H   0  0  0  0  0  0  0  0  0  0  0  0
    2.2840   -2.0483    2.1187 H   0  0  0  0  0  0  0  0  0  0  0  0
    3.2231   -2.8387    0.8569 H   0  0  0  0  0  0  0  0  0  0  0  0
    2.1262   -3.1156   -1.2207 H   0  0  0  0  0  0  0  0  0  0  0  0
    0.7702   -2.0322   -1.7938 H   0  0  0  0  0  0  0  0  0  0  0  0
    4.5478    1.8127    0.5100 H   0  0  0  0  0  0  0  0  0  0  0  0
    3.7835    1.5170   -1.1280 H   0  0  0  0  0  0  0  0  0  0  0  0
  1  7  2  0  0  0  0
  2  4  1  0  0  0  0
  2  5  1  0  0  0  0
  2  9  1  0  0  0  0
  2 11  1  0  0  0  0
  3  6  1  0  0  0  0
  3  7  1  0  0  0  0
  3  8  1  0  0  0  0
  3 17  1  0  0  0  0
  4  7  1  0  0  0  0
  4 10  1  0  0  0  0
  4 18  1  0  0  0  0
  5  6  1  0  0  0  0
  5 19  1  0  0  0  0
  5 20  1  0  0  0  0
  6 21  1  0  0  0  0
  6 22  1  0  0  0  0
  8 12  1  0  0  0  0
  8 13  1  0  0  0  0
  8 23  1  0  0  0  0
  9 24  1  0  0  0  0
  9 25  1  0  0  0  0
  9 26  1  0  0  0  0
 10 14  1  0  0  0  0
 10 15  2  0  0  0  0
 11 16  2  0  0  0  0
 11 27  1  0  0  0  0
 12 28  1  0  0  0  0
 12 29  1  0  0  0  0
 12 30  1  0  0  0  0
 13 31  1  0  0  0  0
 13 32  1  0  0  0  0
 13 33  1  0  0  0  0
 14 34  1  0  0  0  0
 14 35  1  0  0  0  0
 14 36  1  0  0  0  0
 15 37  1  0  0  0  0
 15 38  1  0  0  0  0
 16 39  1  0  0  0  0
 16 40  1  0  0  0  0
M  END
> <PUBCHEM_COMPOUND_CID>
5321293

> <PUBCHEM_CONFORMER_RMSD>
0.6

> <PUBCHEM_CONFORMER_DIVERSEORDER>
2
9
5
6
7
1
4
3
8

> <PUBCHEM_MMFF94_PARTIAL_CHARGES>
15
1 -0.57
10 -0.28
11 -0.29
14 0.14
15 -0.3
16 -0.3
2 0.14
27 0.15
3 0.06
37 0.15
38 0.15
39 0.15
4 0.2
40 0.15
7 0.45

> <PUBCHEM_EFFECTIVE_ROTOR_COUNT>
4

> <PUBCHEM_PHARMACOPHORE_FEATURES>
4
1 1 acceptor
1 16 hydrophobe
3 8 12 13 hydrophobe
6 2 3 4 5 6 7 rings

> <PUBCHEM_HEAVY_ATOM_COUNT>
16

> <PUBCHEM_ATOM_DEF_STEREO_COUNT>
3

> <PUBCHEM_ATOM_UDEF_STEREO_COUNT>
0

> <PUBCHEM_BOND_DEF_STEREO_COUNT>
0

> <PUBCHEM_BOND_UDEF_STEREO_COUNT>
0

> <PUBCHEM_ISOTOPIC_ATOM_COUNT>
0

> <PUBCHEM_COMPONENT_COUNT>
1

> <PUBCHEM_CACTVS_TAUTO_COUNT>
5

> <PUBCHEM_CONFORMER_ID>
0051324D00000002

> <PUBCHEM_MMFF94_ENERGY>
49.7118

> <PUBCHEM_FEATURE_SELFOVERLAP>
20.297

> <PUBCHEM_SHAPE_FINGERPRINT>
10948715 1 18269274732580989532
10967382 1 18411698828533307753
10980938 120 18411704309053982755
11132069 177 18340479088373806720
11578080 2 16879616078333825422
11680986 33 18335990795735494594
12382932 28 18411417336593070921
13140716 1 18337397028711492411
13380535 76 18337389451856503450
14181834 199 18335417928918741382
15219456 202 18408044000807131539
15536298 74 18341895169071289496
15775835 57 18412546547719361897
161256 15 18337957779346245748
16945 1 18264191668666334768
18186145 218 17895196546169768711
193761 8 18195810661112676272
20559304 39 18341614771989029891
20645476 183 17317902591538311980
20645477 70 18339919329923763335
21501502 16 18339360764725860225
21524375 3 18193278717856749812
2334 1 18411138017742768097
23402539 116 18059008501014349132
23419403 2 17760039048897058504
23463225 33 18409162199341818248
23559900 14 18197775501698471914
2748010 2 18337668590529325613
5104073 3 18337678525506054889
528862 383 18408318886924312362
528886 8 18268987755629691152
53655031 270 18410288129835814344
53812653 166 18342737472135012409
5902787 121 18261670364081902379
7364860 26 18271247127570939438
81228 2 17548705079727772771
81539 233 18261110802920526108

> <PUBCHEM_SHAPE_MULTIPOLES>
323.4
5.78
2.55
0.99
3.92
0.55
-0.2
-0.64
0.73
-1.26
-0.06
-0.54
0.13
-0.15

> <PUBCHEM_SHAPE_SELFOVERLAP>
652.489

> <PUBCHEM_SHAPE_VOLUME>
188.9

> <PUBCHEM_COORDINATE_TYPE>
2
5
10

$$$$
