177072
  -OEChem-08252005163D

 38 39  0     1  0  0  0  0  0999 V2000
   -2.4845   -2.0531   -0.4343 O   0  0  0  0  0  0  0  0  0  0  0  0
    0.8691    0.4414    0.1827 C   0  0  2  0  0  0  0  0  0  0  0  0
    2.1383    1.0204   -0.5463 C   0  0  2  0  0  0  0  0  0  0  0  0
    0.9093   -1.0928    0.1734 C   0  0  0  0  0  0  0  0  0  0  0  0
    3.4511    0.3583   -0.0919 C   0  0  0  0  0  0  0  0  0  0  0  0
   -0.3923    0.9440   -0.5797 C   0  0  0  0  0  0  0  0  0  0  0  0
    2.2263   -1.7447    0.5273 C   0  0  0  0  0  0  0  0  0  0  0  0
    3.3886   -1.1547   -0.2571 C   0  0  0  0  0  0  0  0  0  0  0  0
    0.7874    0.9052    1.6556 C   0  0  0  0  0  0  0  0  0  0  0  0
    2.2851    2.5444   -0.4395 C   0  0  0  0  0  0  0  0  0  0  0  0
   -1.6326    0.1703   -0.2565 C   0  0  0  0  0  0  0  0  0  0  0  0
   -0.1629   -1.8647   -0.0774 C   0  0  0  0  0  0  0  0  0  0  0  0
   -1.5228   -1.3095   -0.2765 C   0  0  0  0  0  0  0  0  0  0  0  0
   -2.8176    0.7255    0.0274 C   0  0  0  0  0  0  0  0  0  0  0  0
   -3.0094    2.2137    0.0671 C   0  0  0  0  0  0  0  0  0  0  0  0
   -4.0330   -0.1036    0.3257 C   0  0  0  0  0  0  0  0  0  0  0  0
    2.0359    0.7927   -1.6181 H   0  0  0  0  0  0  0  0  0  0  0  0
    3.6695    0.6106    0.9527 H   0  0  0  0  0  0  0  0  0  0  0  0
    4.2874    0.7437   -0.6881 H   0  0  0  0  0  0  0  0  0  0  0  0
   -0.2320    0.8518   -1.6633 H   0  0  0  0  0  0  0  0  0  0  0  0
   -0.5073    2.0127   -0.3828 H   0  0  0  0  0  0  0  0  0  0  0  0
    2.4072   -1.6130    1.6015 H   0  0  0  0  0  0  0  0  0  0  0  0
    2.1959   -2.8268    0.3501 H   0  0  0  0  0  0  0  0  0  0  0  0
    4.3287   -1.6004    0.0881 H   0  0  0  0  0  0  0  0  0  0  0  0
    3.2877   -1.4068   -1.3203 H   0  0  0  0  0  0  0  0  0  0  0  0
    1.7016    0.6718    2.2110 H   0  0  0  0  0  0  0  0  0  0  0  0
    0.6238    1.9857    1.7293 H   0  0  0  0  0  0  0  0  0  0  0  0
   -0.0424    0.4216    2.1848 H   0  0  0  0  0  0  0  0  0  0  0  0
    3.1370    2.8865   -1.0382 H   0  0  0  0  0  0  0  0  0  0  0  0
    1.4015    3.0663   -0.8162 H   0  0  0  0  0  0  0  0  0  0  0  0
    2.4638    2.8643    0.5917 H   0  0  0  0  0  0  0  0  0  0  0  0
   -0.0910   -2.9480   -0.0653 H   0  0  0  0  0  0  0  0  0  0  0  0
   -2.4074    2.7479   -0.6728 H   0  0  0  0  0  0  0  0  0  0  0  0
   -2.7867    2.6005    1.0664 H   0  0  0  0  0  0  0  0  0  0  0  0
   -4.0479    2.4731   -0.1692 H   0  0  0  0  0  0  0  0  0  0  0  0
   -3.8443   -0.8701    1.0842 H   0  0  0  0  0  0  0  0  0  0  0  0
   -4.4502   -0.5437   -0.5856 H   0  0  0  0  0  0  0  0  0  0  0  0
   -4.8236    0.5233    0.7563 H   0  0  0  0  0  0  0  0  0  0  0  0
  1 13  2  0  0  0  0
  2  3  1  0  0  0  0
  2  4  1  0  0  0  0
  2  6  1  0  0  0  0
  2  9  1  0  0  0  0
  3  5  1  0  0  0  0
  3 10  1  0  0  0  0
  3 17  1  0  0  0  0
  4  7  1  0  0  0  0
  4 12  2  0  0  0  0
  5  8  1  0  0  0  0
  5 18  1  0  0  0  0
  5 19  1  0  0  0  0
  6 11  1  0  0  0  0
  6 20  1  0  0  0  0
  6 21  1  0  0  0  0
  7  8  1  0  0  0  0
  7 22  1  0  0  0  0
  7 23  1  0  0  0  0
  8 24  1  0  0  0  0
  8 25  1  0  0  0  0
  9 26  1  0  0  0  0
  9 27  1  0  0  0  0
  9 28  1  0  0  0  0
 10 29  1  0  0  0  0
 10 30  1  0  0  0  0
 10 31  1  0  0  0  0
 11 13  1  0  0  0  0
 11 14  2  0  0  0  0
 12 13  1  0  0  0  0
 12 32  1  0  0  0  0
 14 15  1  0  0  0  0
 14 16  1  0  0  0  0
 15 33  1  0  0  0  0
 15 34  1  0  0  0  0
 15 35  1  0  0  0  0
 16 36  1  0  0  0  0
 16 37  1  0  0  0  0
 16 38  1  0  0  0  0
M  END
> <PUBCHEM_COMPOUND_CID>
177072

> <PUBCHEM_CONFORMER_RMSD>
0.6

> <PUBCHEM_CONFORMER_DIVERSEORDER>
2
1

> <PUBCHEM_MMFF94_PARTIAL_CHARGES>
12
1 -0.57
11 -0.12
12 -0.14
13 0.54
14 -0.28
15 0.14
16 0.14
2 0.14
32 0.15
4 -0.28
6 0.14
7 0.14

> <PUBCHEM_EFFECTIVE_ROTOR_COUNT>
1

> <PUBCHEM_PHARMACOPHORE_FEATURES>
4
1 1 acceptor
3 14 15 16 hydrophobe
6 2 3 4 5 7 8 rings
6 2 4 6 11 12 13 rings

> <PUBCHEM_HEAVY_ATOM_COUNT>
16

> <PUBCHEM_ATOM_DEF_STEREO_COUNT>
2

> <PUBCHEM_ATOM_UDEF_STEREO_COUNT>
0

> <PUBCHEM_BOND_DEF_STEREO_COUNT>
0

> <PUBCHEM_BOND_UDEF_STEREO_COUNT>
0

> <PUBCHEM_ISOTOPIC_ATOM_COUNT>
0

> <PUBCHEM_COMPONENT_COUNT>
1

> <PUBCHEM_CACTVS_TAUTO_COUNT>
8

> <PUBCHEM_CONFORMER_ID>
0002B3B000000002

> <PUBCHEM_MMFF94_ENERGY>
43.2188

> <PUBCHEM_FEATURE_SELFOVERLAP>
20.317

> <PUBCHEM_SHAPE_FINGERPRINT>
10608611 8 18410009948634906357
10922523 26 18272091591045078942
10967382 1 18337671923344494670
10980938 120 18335705988027458506
11132069 177 18340478993794718858
11471102 20 18336261267063787798
12251169 10 18409166597504386783
12491281 212 18260838136768862556
13132413 78 18269271275084811036
13140716 1 18409445912028151810
13221675 6 18334295348805340367
13380535 21 18339085994119141499
14115302 16 18272654536555794224
14144814 61 18337952294509413409
14178342 30 18338496621753918378
15196674 1 18337954489147972430
15442244 35 18337952286019770502
15536298 74 18413671327051021574
15775835 57 18412549833406039199
16945 1 18336537214517932134
18186145 218 18272661129488998508
18511873 20 18342175510092335370
18981168 100 18191279702480320501
19422 9 18187651258352790147
20233049 118 18059568027894380672
20510252 161 18124881410907413009
20511035 2 18201141209453363686
21267235 1 18410020909338880078
21501502 16 18339640152174359166
22094290 62 18409729521577455372
22854114 111 18335143102335139720
2334 1 18265893738303865687
23402539 116 18198895921353554766
23419403 2 14960431820310521275
23463225 33 18408322163863020486
23552423 10 18335414720536057390
23559900 14 18131631159057600450
2748010 2 18337947995162799703
296302 2 16487247773096502034
335352 9 18122062000884382790
350125 39 18410577292656259081
474 4 17459477830207457548
5104073 3 18337391543494807040
528886 8 18335416863814201002
53812653 166 18272364308572754664
7364860 26 18412825819805130596
74978 22 18410851053549835981
7832392 63 18410291376561902300
9981440 41 17614561866936950840
9999458 23 18186807950325190879

> <PUBCHEM_SHAPE_MULTIPOLES>
323.4
5.9
2.44
0.89
1.96
0.32
-0.27
0.59
0.15
-0.18
0.21
-0.18
0.16
-0.38

> <PUBCHEM_SHAPE_SELFOVERLAP>
672.411

> <PUBCHEM_SHAPE_VOLUME>
183.5

> <PUBCHEM_COORDINATE_TYPE>
2
5
10

$$$$
