12302239
  -OEChem-08252004073D

 43 44  0     1  0  0  0  0  0999 V2000
   -0.0293    0.5438    1.3658 O   0  0  0  0  0  0  0  0  0  0  0  0
   -0.1936   -2.1971    1.4731 O   0  0  0  0  0  0  0  0  0  0  0  0
   -0.0488    0.4314   -0.0642 C   0  0  2  0  0  0  0  0  0  0  0  0
   -0.8522   -0.8551   -0.4584 C   0  0  1  0  0  0  0  0  0  0  0  0
    1.4163    0.3136   -0.5782 C   0  0  2  0  0  0  0  0  0  0  0  0
   -0.1710   -2.1632    0.0437 C   0  0  1  0  0  0  0  0  0  0  0  0
    2.0827   -0.9666   -0.0480 C   0  0  0  0  0  0  0  0  0  0  0  0
    1.2926   -2.2147   -0.4283 C   0  0  0  0  0  0  0  0  0  0  0  0
   -2.3231   -0.7372    0.0076 C   0  0  0  0  0  0  0  0  0  0  0  0
   -0.7498    1.6921   -0.6276 C   0  0  0  0  0  0  0  0  0  0  0  0
    2.3067    1.5114   -0.2220 C   0  0  0  0  0  0  0  0  0  0  0  0
   -3.0001    0.5112   -0.5596 C   0  0  0  0  0  0  0  0  0  0  0  0
   -2.2062    1.7430   -0.2360 C   0  0  0  0  0  0  0  0  0  0  0  0
   -0.8949   -3.4229   -0.4530 C   0  0  0  0  0  0  0  0  0  0  0  0
    2.4478    1.6350    1.2908 C   0  0  0  0  0  0  0  0  0  0  0  0
    3.6723    1.3716   -0.8851 C   0  0  0  0  0  0  0  0  0  0  0  0
   -2.7495    2.8037    0.3794 C   0  0  0  0  0  0  0  0  0  0  0  0
   -0.8670   -0.9026   -1.5583 H   0  0  0  0  0  0  0  0  0  0  0  0
    1.3724    0.2407   -1.6748 H   0  0  0  0  0  0  0  0  0  0  0  0
    2.1954   -0.9798    1.0382 H   0  0  0  0  0  0  0  0  0  0  0  0
    3.0848   -1.0964   -0.4686 H   0  0  0  0  0  0  0  0  0  0  0  0
    1.3267   -2.3382   -1.5187 H   0  0  0  0  0  0  0  0  0  0  0  0
    1.7992   -3.0850    0.0086 H   0  0  0  0  0  0  0  0  0  0  0  0
   -2.3778   -0.7208    1.1032 H   0  0  0  0  0  0  0  0  0  0  0  0
   -2.9007   -1.6059   -0.3250 H   0  0  0  0  0  0  0  0  0  0  0  0
   -0.6793    1.7049   -1.7223 H   0  0  0  0  0  0  0  0  0  0  0  0
   -0.2553    2.5965   -0.2555 H   0  0  0  0  0  0  0  0  0  0  0  0
    1.8659    2.4346   -0.6133 H   0  0  0  0  0  0  0  0  0  0  0  0
   -4.0213    0.5764   -0.1657 H   0  0  0  0  0  0  0  0  0  0  0  0
   -3.0869    0.4203   -1.6494 H   0  0  0  0  0  0  0  0  0  0  0  0
   -1.8790   -3.5340    0.0136 H   0  0  0  0  0  0  0  0  0  0  0  0
   -1.0154   -3.4164   -1.5410 H   0  0  0  0  0  0  0  0  0  0  0  0
   -0.3356   -4.3250   -0.1773 H   0  0  0  0  0  0  0  0  0  0  0  0
    0.2675   -0.2972    1.7479 H   0  0  0  0  0  0  0  0  0  0  0  0
    0.2523   -3.0111    1.7632 H   0  0  0  0  0  0  0  0  0  0  0  0
    2.7526    0.7327    1.8204 H   0  0  0  0  0  0  0  0  0  0  0  0
    3.2361    2.3696    1.5064 H   0  0  0  0  0  0  0  0  0  0  0  0
    1.5593    2.0614    1.7617 H   0  0  0  0  0  0  0  0  0  0  0  0
    4.3125    0.6335   -0.3922 H   0  0  0  0  0  0  0  0  0  0  0  0
    4.2085    2.3267   -0.8331 H   0  0  0  0  0  0  0  0  0  0  0  0
    3.5820    1.1099   -1.9446 H   0  0  0  0  0  0  0  0  0  0  0  0
   -2.1598    3.6832    0.6150 H   0  0  0  0  0  0  0  0  0  0  0  0
   -3.7970    2.8166    0.6610 H   0  0  0  0  0  0  0  0  0  0  0  0
  1  3  1  0  0  0  0
  1 34  1  0  0  0  0
  2  6  1  0  0  0  0
  2 35  1  0  0  0  0
  3  4  1  0  0  0  0
  3  5  1  0  0  0  0
  3 10  1  0  0  0  0
  4  6  1  0  0  0  0
  4  9  1  0  0  0  0
  4 18  1  0  0  0  0
  5  7  1  0  0  0  0
  5 11  1  0  0  0  0
  5 19  1  0  0  0  0
  6  8  1  0  0  0  0
  6 14  1  0  0  0  0
  7  8  1  0  0  0  0
  7 20  1  0  0  0  0
  7 21  1  0  0  0  0
  8 22  1  0  0  0  0
  8 23  1  0  0  0  0
  9 12  1  0  0  0  0
  9 24  1  0  0  0  0
  9 25  1  0  0  0  0
 10 13  1  0  0  0  0
 10 26  1  0  0  0  0
 10 27  1  0  0  0  0
 11 15  1  0  0  0  0
 11 16  1  0  0  0  0
 11 28  1  0  0  0  0
 12 13  1  0  0  0  0
 12 29  1  0  0  0  0
 12 30  1  0  0  0  0
 13 17  2  0  0  0  0
 14 31  1  0  0  0  0
 14 32  1  0  0  0  0
 14 33  1  0  0  0  0
 15 36  1  0  0  0  0
 15 37  1  0  0  0  0
 15 38  1  0  0  0  0
 16 39  1  0  0  0  0
 16 40  1  0  0  0  0
 16 41  1  0  0  0  0
 17 42  1  0  0  0  0
 17 43  1  0  0  0  0
M  END
> <PUBCHEM_COMPOUND_CID>
12302239

> <PUBCHEM_CONFORMER_RMSD>
0.6

> <PUBCHEM_CONFORMER_DIVERSEORDER>
3
41
10
39
33
6
5
35
9
38
21
7
32
42
15
19
11
40
31
27
24
18
1
8
28
2
37
34
36
16
29
30
14
26
17
13
4
25
12
20
22
23

> <PUBCHEM_MMFF94_PARTIAL_CHARGES>
12
1 -0.68
10 0.14
12 0.14
13 -0.28
17 -0.3
2 -0.68
3 0.28
34 0.4
35 0.4
42 0.15
43 0.15
6 0.28

> <PUBCHEM_EFFECTIVE_ROTOR_COUNT>
2.4

> <PUBCHEM_PHARMACOPHORE_FEATURES>
7
1 1 acceptor
1 1 donor
1 2 acceptor
1 2 donor
3 11 15 16 hydrophobe
6 3 4 5 6 7 8 rings
6 3 4 9 10 12 13 rings

> <PUBCHEM_HEAVY_ATOM_COUNT>
17

> <PUBCHEM_ATOM_DEF_STEREO_COUNT>
0

> <PUBCHEM_ATOM_UDEF_STEREO_COUNT>
4

> <PUBCHEM_BOND_DEF_STEREO_COUNT>
0

> <PUBCHEM_BOND_UDEF_STEREO_COUNT>
0

> <PUBCHEM_ISOTOPIC_ATOM_COUNT>
0

> <PUBCHEM_COMPONENT_COUNT>
1

> <PUBCHEM_CACTVS_TAUTO_COUNT>
1

> <PUBCHEM_CONFORMER_ID>
00BBB79F00000003

> <PUBCHEM_MMFF94_ENERGY>
54.2212

> <PUBCHEM_FEATURE_SELFOVERLAP>
35.545

> <PUBCHEM_SHAPE_FINGERPRINT>
1 1 18194118516943515461
10967382 1 18410573963734702125
12423570 1 12108052453032585880
12491281 212 18335146392375274372
13132413 78 17333087521032313204
13140716 1 18265613186829695265
13380535 76 18409727370167832542
13538477 17 17970616614010866268
14178342 30 17908122301486014787
14648413 74 18048600313676747761
14817 1 11654602153867512408
15001771 113 16683725789074109718
15490181 8 18408604747041461782
15775835 57 18339651031295098869
16945 1 18268705180940847101
17990270 104 17834672695736644527
193761 8 18410575089185393422
19591789 44 18410865330058317526
19868273 325 17616814774392547566
20510252 161 18125162881462783088
20511035 2 18187662262075151566
20645477 70 18120368766643569133
20711985 344 18120373417697089266
21501502 16 18339640023546886421
21524375 3 18335134272008817356
22344851 341 18266172842532521131
2255824 54 18121220874552606309
22802520 49 18056206997179129862
2334 1 18409446977259337741
23402539 116 18196358436956768503
23419403 2 16905877973244345623
23493267 7 17895478141052175056
23526113 38 17703243905035197340
23552423 10 18194396685133128709
23557571 272 17763180641676114528
238 59 17394976909114915413
25 1 18266750077716058420
2748010 2 18335988588364689767
305870 269 18336539400566816280
350125 39 18338521841611800629
458136 41 18195547916583237049
7364860 26 18052532171346835845
7832392 63 17693653715171891733
81228 2 18047749591986949904
84936 182 18128813045419114976

> <PUBCHEM_SHAPE_MULTIPOLES>
338.11
4.37
3.55
1.04
0.94
1.93
-0.3
-3.38
0.61
-1.03
-0.12
0.33
-0.09
-0.03

> <PUBCHEM_SHAPE_SELFOVERLAP>
694.457

> <PUBCHEM_SHAPE_VOLUME>
194.1

> <PUBCHEM_COORDINATE_TYPE>
2
5
10

$$$$
