591309
  -OEChem-08252004573D

 40 40  0     1  0  0  0  0  0999 V2000
   -0.5541    1.6588   -1.4571 O   0  0  0  0  0  0  0  0  0  0  0  0
    1.0128   -0.9709    0.4283 C   0  0  2  0  0  0  0  0  0  0  0  0
   -1.7298   -0.2743   -0.6842 C   0  0  2  0  0  0  0  0  0  0  0  0
    0.5041    0.4992    0.4037 C   0  0  2  0  0  0  0  0  0  0  0  0
   -0.1976   -1.9344    0.5107 C   0  0  0  0  0  0  0  0  0  0  0  0
   -1.2193   -1.7131   -0.6074 C   0  0  0  0  0  0  0  0  0  0  0  0
   -0.5660    0.7060   -0.6764 C   0  0  0  0  0  0  0  0  0  0  0  0
   -2.7112    0.0691    0.4319 C   0  0  0  0  0  0  0  0  0  0  0  0
    1.8959   -1.2025    1.6731 C   0  0  0  0  0  0  0  0  0  0  0  0
    1.5905    1.5227    0.2531 C   0  0  0  0  0  0  0  0  0  0  0  0
    1.8368   -1.3089   -0.7958 C   0  0  0  0  0  0  0  0  0  0  0  0
   -3.2359    1.4937    0.2665 C   0  0  0  0  0  0  0  0  0  0  0  0
   -3.8670   -0.9289    0.4572 C   0  0  0  0  0  0  0  0  0  0  0  0
    1.7198    2.5189    1.3670 C   0  0  0  0  0  0  0  0  0  0  0  0
    2.4001    1.5452   -0.8160 C   0  0  0  0  0  0  0  0  0  0  0  0
    3.1207   -1.6806   -0.7545 C   0  0  0  0  0  0  0  0  0  0  0  0
   -2.2358   -0.1628   -1.6536 H   0  0  0  0  0  0  0  0  0  0  0  0
   -0.0116    0.6939    1.3548 H   0  0  0  0  0  0  0  0  0  0  0  0
   -0.6993   -1.8198    1.4801 H   0  0  0  0  0  0  0  0  0  0  0  0
    0.1456   -2.9770    0.4696 H   0  0  0  0  0  0  0  0  0  0  0  0
   -0.7486   -1.9597   -1.5676 H   0  0  0  0  0  0  0  0  0  0  0  0
   -2.0302   -2.4410   -0.5148 H   0  0  0  0  0  0  0  0  0  0  0  0
   -2.2168    0.0229    1.4098 H   0  0  0  0  0  0  0  0  0  0  0  0
    1.3238   -0.9751    2.5822 H   0  0  0  0  0  0  0  0  0  0  0  0
    2.2129   -2.2482    1.7724 H   0  0  0  0  0  0  0  0  0  0  0  0
    2.7810   -0.5569    1.7075 H   0  0  0  0  0  0  0  0  0  0  0  0
    1.3628   -1.2514   -1.7726 H   0  0  0  0  0  0  0  0  0  0  0  0
   -3.6932    1.6399   -0.7182 H   0  0  0  0  0  0  0  0  0  0  0  0
   -3.9978    1.7148    1.0224 H   0  0  0  0  0  0  0  0  0  0  0  0
   -2.4436    2.2380    0.3923 H   0  0  0  0  0  0  0  0  0  0  0  0
   -4.3064   -1.0642   -0.5368 H   0  0  0  0  0  0  0  0  0  0  0  0
   -4.6631   -0.5794    1.1247 H   0  0  0  0  0  0  0  0  0  0  0  0
   -3.5564   -1.9051    0.8412 H   0  0  0  0  0  0  0  0  0  0  0  0
    0.7924    3.0911    1.4742 H   0  0  0  0  0  0  0  0  0  0  0  0
    1.9266    2.0089    2.3134 H   0  0  0  0  0  0  0  0  0  0  0  0
    2.5316    3.2324    1.1902 H   0  0  0  0  0  0  0  0  0  0  0  0
    3.1842    2.2940   -0.8878 H   0  0  0  0  0  0  0  0  0  0  0  0
    2.2851    0.9172   -1.6876 H   0  0  0  0  0  0  0  0  0  0  0  0
    3.6288   -1.9046   -1.6887 H   0  0  0  0  0  0  0  0  0  0  0  0
    3.7238   -1.7831    0.1368 H   0  0  0  0  0  0  0  0  0  0  0  0
  1  7  2  0  0  0  0
  2  4  1  0  0  0  0
  2  5  1  0  0  0  0
  2  9  1  0  0  0  0
  2 11  1  0  0  0  0
  3  6  1  0  0  0  0
  3  7  1  0  0  0  0
  3  8  1  0  0  0  0
  3 17  1  0  0  0  0
  4  7  1  0  0  0  0
  4 10  1  0  0  0  0
  4 18  1  0  0  0  0
  5  6  1  0  0  0  0
  5 19  1  0  0  0  0
  5 20  1  0  0  0  0
  6 21  1  0  0  0  0
  6 22  1  0  0  0  0
  8 12  1  0  0  0  0
  8 13  1  0  0  0  0
  8 23  1  0  0  0  0
  9 24  1  0  0  0  0
  9 25  1  0  0  0  0
  9 26  1  0  0  0  0
 10 14  1  0  0  0  0
 10 15  2  0  0  0  0
 11 16  2  0  0  0  0
 11 27  1  0  0  0  0
 12 28  1  0  0  0  0
 12 29  1  0  0  0  0
 12 30  1  0  0  0  0
 13 31  1  0  0  0  0
 13 32  1  0  0  0  0
 13 33  1  0  0  0  0
 14 34  1  0  0  0  0
 14 35  1  0  0  0  0
 14 36  1  0  0  0  0
 15 37  1  0  0  0  0
 15 38  1  0  0  0  0
 16 39  1  0  0  0  0
 16 40  1  0  0  0  0
M  END
> <PUBCHEM_COMPOUND_CID>
591309

> <PUBCHEM_CONFORMER_RMSD>
0.6

> <PUBCHEM_CONFORMER_DIVERSEORDER>
10
122
127
65
111
155
138
61
147
90
92
135
159
112
134
42
81
76
59
103
35
43
142
99
139
91
116
115
96
95
57
118
73
117
102
129
4
2
146
30
125
75
137
64
24
37
46
79
119
47
143
1
83
84
14
78
149
114
67
154
124
41
109
72
157
101
60
66
8
88
145
150
27
19
3
89
53
9
85
25
26
110
153
126
23
121
144
148
31
80
36
87
45
16
15
17
33
107
58
71
34
133
140
54
100
52
120
18
82
77
130
5
68
28
63
49
151
44
11
156
38
104
22
108
62
106
160
158
70
32
93
128
6
55
48
86
132
105
20
50
152
97
123
7
141
51
74
13
29
131
94
136
39
12
113
21
40
56
98
69

> <PUBCHEM_MMFF94_PARTIAL_CHARGES>
15
1 -0.57
10 -0.28
11 -0.29
14 0.14
15 -0.3
16 -0.3
2 0.14
27 0.15
3 0.06
37 0.15
38 0.15
39 0.15
4 0.2
40 0.15
7 0.45

> <PUBCHEM_EFFECTIVE_ROTOR_COUNT>
4

> <PUBCHEM_PHARMACOPHORE_FEATURES>
4
1 1 acceptor
1 16 hydrophobe
3 8 12 13 hydrophobe
6 2 3 4 5 6 7 rings

> <PUBCHEM_HEAVY_ATOM_COUNT>
16

> <PUBCHEM_ATOM_DEF_STEREO_COUNT>
0

> <PUBCHEM_ATOM_UDEF_STEREO_COUNT>
3

> <PUBCHEM_BOND_DEF_STEREO_COUNT>
0

> <PUBCHEM_BOND_UDEF_STEREO_COUNT>
0

> <PUBCHEM_ISOTOPIC_ATOM_COUNT>
0

> <PUBCHEM_COMPONENT_COUNT>
1

> <PUBCHEM_CACTVS_TAUTO_COUNT>
5

> <PUBCHEM_CONFORMER_ID>
000905CD0000000A

> <PUBCHEM_MMFF94_ENERGY>
45.5615

> <PUBCHEM_FEATURE_SELFOVERLAP>
20.297

> <PUBCHEM_SHAPE_FINGERPRINT>
10980938 120 18340490057630388953
11086676 242 18115587015589476209
12423570 1 9528449426905097782
12491281 212 18058469740310983433
12524768 44 18337101371257047383
12696612 119 18336250293453943112
12716301 132 17389641013323704525
13140716 1 18336256856554459017
13172582 1 18267289950572912298
13380535 21 18267314307385169383
14223421 5 18339643459794795961
14648413 74 18271810158981182698
14817 1 13465843807823100324
15490181 8 17828770886316489900
15536298 74 18341899609940964023
15775835 57 18271818976960368305
161256 15 18334293162730199508
16945 1 18127126604887141615
20233049 118 18191873309851985972
20559304 39 18202001036183523209
20691752 17 17458063768075160977
21041028 32 18200603479442442145
21501502 16 18340766069398364030
21524375 3 18051119595384695672
22344851 341 18261957444101431202
22802520 49 18264784318445240926
2334 1 18335415807405278997
2748010 2 18261097578705730965
276578 36 18338245984631648353
3286 77 18411984654523061359
54276843 12 17986955141766338302
63268167 104 18341341040906951745
7364860 26 18201719591324272456
81228 2 17333636186203914072

> <PUBCHEM_SHAPE_MULTIPOLES>
323.4
4.88
2.55
1.28
3.4
0.63
-0.17
-0.24
-0.26
-1.27
-0.24
-0.58
0.13
0.31

> <PUBCHEM_SHAPE_SELFOVERLAP>
651.522

> <PUBCHEM_SHAPE_VOLUME>
189.3

> <PUBCHEM_COORDINATE_TYPE>
2
5
10

$$$$
