6452183
  -OEChem-08252003583D

 40 40  0     1  0  0  0  0  0999 V2000
   -0.6741   -1.5202   -1.6988 O   0  0  0  0  0  0  0  0  0  0  0  0
   -1.4168    0.0561   -0.0204 C   0  0  2  0  0  0  0  0  0  0  0  0
   -2.8777   -0.3877    0.0445 C   0  0  0  0  0  0  0  0  0  0  0  0
   -1.2678    1.3125   -0.8961 C   0  0  0  0  0  0  0  0  0  0  0  0
    0.1641    1.8557   -1.0657 C   0  0  0  0  0  0  0  0  0  0  0  0
   -0.5795   -1.0967   -0.5498 C   0  0  0  0  0  0  0  0  0  0  0  0
   -3.0261   -1.6121    0.9440 C   0  0  0  0  0  0  0  0  0  0  0  0
   -3.7628    0.7537    0.5391 C   0  0  0  0  0  0  0  0  0  0  0  0
    0.9515    2.0250    0.2128 C   0  0  0  0  0  0  0  0  0  0  0  0
    0.3609   -1.7209    0.4166 C   0  0  0  0  0  0  0  0  0  0  0  0
    2.3739   -0.8237   -0.8185 C   0  0  0  0  0  0  0  0  0  0  0  0
    2.9618    0.5364   -0.4149 C   0  0  0  0  0  0  0  0  0  0  0  0
    1.6929   -1.5826    0.2980 C   0  0  0  0  0  0  0  0  0  0  0  0
    2.1350    1.4329    0.4697 C   0  0  0  0  0  0  0  0  0  0  0  0
    0.3531    2.9724    1.2224 C   0  0  0  0  0  0  0  0  0  0  0  0
    2.6117   -2.2009    1.3169 C   0  0  0  0  0  0  0  0  0  0  0  0
   -1.0766    0.2927    0.9958 H   0  0  0  0  0  0  0  0  0  0  0  0
   -3.2278   -0.6737   -0.9565 H   0  0  0  0  0  0  0  0  0  0  0  0
   -1.8591    2.1342   -0.4774 H   0  0  0  0  0  0  0  0  0  0  0  0
   -1.6755    1.1200   -1.8973 H   0  0  0  0  0  0  0  0  0  0  0  0
    0.1006    2.8354   -1.5583 H   0  0  0  0  0  0  0  0  0  0  0  0
    0.6966    1.2225   -1.7798 H   0  0  0  0  0  0  0  0  0  0  0  0
   -2.6180   -1.4277    1.9437 H   0  0  0  0  0  0  0  0  0  0  0  0
   -4.0832   -1.8760    1.0628 H   0  0  0  0  0  0  0  0  0  0  0  0
   -2.5318   -2.4933    0.5239 H   0  0  0  0  0  0  0  0  0  0  0  0
   -3.3660    1.2061    1.4543 H   0  0  0  0  0  0  0  0  0  0  0  0
   -4.7721    0.3891    0.7627 H   0  0  0  0  0  0  0  0  0  0  0  0
   -3.8839    1.5357   -0.2165 H   0  0  0  0  0  0  0  0  0  0  0  0
   -0.0840   -2.2425    1.2568 H   0  0  0  0  0  0  0  0  0  0  0  0
    3.1844   -1.4473   -1.2196 H   0  0  0  0  0  0  0  0  0  0  0  0
    1.7049   -0.6848   -1.6720 H   0  0  0  0  0  0  0  0  0  0  0  0
    3.2430    1.0900   -1.3198 H   0  0  0  0  0  0  0  0  0  0  0  0
    3.9098    0.3525    0.1092 H   0  0  0  0  0  0  0  0  0  0  0  0
    2.6070    1.6485    1.4283 H   0  0  0  0  0  0  0  0  0  0  0  0
    1.0125    3.1361    2.0815 H   0  0  0  0  0  0  0  0  0  0  0  0
   -0.5955    2.5870    1.6076 H   0  0  0  0  0  0  0  0  0  0  0  0
    0.1698    3.9486    0.7612 H   0  0  0  0  0  0  0  0  0  0  0  0
    3.3009   -2.8996    0.8314 H   0  0  0  0  0  0  0  0  0  0  0  0
    2.0638   -2.7576    2.0847 H   0  0  0  0  0  0  0  0  0  0  0  0
    3.1986   -1.4290    1.8245 H   0  0  0  0  0  0  0  0  0  0  0  0
  1  6  2  0  0  0  0
  2  3  1  0  0  0  0
  2  4  1  0  0  0  0
  2  6  1  0  0  0  0
  2 17  1  0  0  0  0
  3  7  1  0  0  0  0
  3  8  1  0  0  0  0
  3 18  1  0  0  0  0
  4  5  1  0  0  0  0
  4 19  1  0  0  0  0
  4 20  1  0  0  0  0
  5  9  1  0  0  0  0
  5 21  1  0  0  0  0
  5 22  1  0  0  0  0
  6 10  1  0  0  0  0
  7 23  1  0  0  0  0
  7 24  1  0  0  0  0
  7 25  1  0  0  0  0
  8 26  1  0  0  0  0
  8 27  1  0  0  0  0
  8 28  1  0  0  0  0
  9 14  2  0  0  0  0
  9 15  1  0  0  0  0
 10 13  2  0  0  0  0
 10 29  1  0  0  0  0
 11 12  1  0  0  0  0
 11 13  1  0  0  0  0
 11 30  1  0  0  0  0
 11 31  1  0  0  0  0
 12 14  1  0  0  0  0
 12 32  1  0  0  0  0
 12 33  1  0  0  0  0
 13 16  1  0  0  0  0
 14 34  1  0  0  0  0
 15 35  1  0  0  0  0
 15 36  1  0  0  0  0
 15 37  1  0  0  0  0
 16 38  1  0  0  0  0
 16 39  1  0  0  0  0
 16 40  1  0  0  0  0
M  END
> <PUBCHEM_COMPOUND_CID>
6452183

> <PUBCHEM_CONFORMER_RMSD>
0.6

> <PUBCHEM_CONFORMER_DIVERSEORDER>
1
10
8
2
5
7
11
13
6
4
12
9
3

> <PUBCHEM_MMFF94_PARTIAL_CHARGES>
14
1 -0.57
10 -0.14
11 0.14
12 0.14
13 -0.28
14 -0.29
15 0.14
16 0.14
2 0.06
29 0.15
34 0.15
5 0.14
6 0.49
9 -0.28

> <PUBCHEM_EFFECTIVE_ROTOR_COUNT>
2

> <PUBCHEM_PHARMACOPHORE_FEATURES>
2
1 1 acceptor
3 3 7 8 hydrophobe

> <PUBCHEM_HEAVY_ATOM_COUNT>
16

> <PUBCHEM_ATOM_DEF_STEREO_COUNT>
1

> <PUBCHEM_ATOM_UDEF_STEREO_COUNT>
0

> <PUBCHEM_BOND_DEF_STEREO_COUNT>
2

> <PUBCHEM_BOND_UDEF_STEREO_COUNT>
0

> <PUBCHEM_ISOTOPIC_ATOM_COUNT>
0

> <PUBCHEM_COMPONENT_COUNT>
1

> <PUBCHEM_CACTVS_TAUTO_COUNT>
8

> <PUBCHEM_CONFORMER_ID>
006273D700000001

> <PUBCHEM_MMFF94_ENERGY>
34.9698

> <PUBCHEM_FEATURE_SELFOVERLAP>
10.148

> <PUBCHEM_SHAPE_FINGERPRINT>
104564 63 18055365638523714448
10980938 120 18413110579956861095
11067466 332 18186806915296120652
11086676 242 18338516318341744074
12696612 119 18337668719299015206
13140716 1 18266172838174146458
13172582 1 18272642407594673486
14251711 518 18341320158950174838
14817 1 13866843291780027964
15375462 189 18336270067467536608
15375462 478 18119237373004205502
15775835 57 18340210777297486092
15852999 172 16754054439874510068
16945 1 18186523215215185981
20905425 154 18409454660918692701
21041028 32 18268429036108234752
21501502 16 18262799549696482005
22112679 90 18057581283492593278
2334 1 18409725149305750022
23419403 2 17758351315633287644
2748010 2 18338504236598974284
53812653 166 18336550502977810848
568465 68 18118135881301197368
5939293 188 18343866597609747521
7832392 63 18130789009389302318
81228 2 17763187934097345579

> <PUBCHEM_SHAPE_MULTIPOLES>
323.4
4.79
3
1.25
2.5
0.96
0.09
-1.26
-1.01
-1.08
-0.89
-0.11
-0.04
-0.09

> <PUBCHEM_SHAPE_SELFOVERLAP>
638.041

> <PUBCHEM_SHAPE_VOLUME>
192.4

> <PUBCHEM_COORDINATE_TYPE>
2
5
10

$$$$
