21591457
  -OEChem-08252005293D

 38 39  0     1  0  0  0  0  0999 V2000
   -0.0197   -3.0864   -0.5007 O   0  0  0  0  0  0  0  0  0  0  0  0
   -0.7643    0.4938   -0.4637 C   0  0  1  0  0  0  0  0  0  0  0  0
   -1.7811    1.4244    0.2963 C   0  0  2  0  0  0  0  0  0  0  0  0
    0.6890    1.0369   -0.2460 C   0  0  0  0  0  0  0  0  0  0  0  0
   -0.9019   -0.9391    0.0322 C   0  0  0  0  0  0  0  0  0  0  0  0
    1.6742    0.0187    0.3529 C   0  0  1  0  0  0  0  0  0  0  0  0
   -3.1698    0.7729    0.4217 C   0  0  0  0  0  0  0  0  0  0  0  0
   -1.0564    0.4723   -1.9851 C   0  0  0  0  0  0  0  0  0  0  0  0
    1.5911   -1.3207   -0.3773 C   0  0  0  0  0  0  0  0  0  0  0  0
   -3.1002   -0.5630    1.1587 C   0  0  0  0  0  0  0  0  0  0  0  0
    0.1976   -1.8957   -0.2882 C   0  0  0  0  0  0  0  0  0  0  0  0
   -1.9287   -1.4047    0.7597 C   0  0  0  0  0  0  0  0  0  0  0  0
   -1.9289    2.8252   -0.3121 C   0  0  0  0  0  0  0  0  0  0  0  0
    3.0713    0.5594    0.3236 C   0  0  0  0  0  0  0  0  0  0  0  0
    3.7356    0.7476    1.6552 C   0  0  0  0  0  0  0  0  0  0  0  0
    3.6921    0.8585   -0.8271 C   0  0  0  0  0  0  0  0  0  0  0  0
   -1.4038    1.5638    1.3209 H   0  0  0  0  0  0  0  0  0  0  0  0
    0.6751    1.9076    0.4238 H   0  0  0  0  0  0  0  0  0  0  0  0
    1.0664    1.4287   -1.1995 H   0  0  0  0  0  0  0  0  0  0  0  0
    1.3798   -0.1454    1.3998 H   0  0  0  0  0  0  0  0  0  0  0  0
   -3.6085    0.6210   -0.5722 H   0  0  0  0  0  0  0  0  0  0  0  0
   -3.8553    1.4386    0.9607 H   0  0  0  0  0  0  0  0  0  0  0  0
   -0.9458    1.4648   -2.4347 H   0  0  0  0  0  0  0  0  0  0  0  0
   -0.3629   -0.1905   -2.5169 H   0  0  0  0  0  0  0  0  0  0  0  0
   -2.0698    0.1183   -2.2028 H   0  0  0  0  0  0  0  0  0  0  0  0
    2.2798   -2.0396    0.0828 H   0  0  0  0  0  0  0  0  0  0  0  0
    1.8416   -1.2305   -1.4405 H   0  0  0  0  0  0  0  0  0  0  0  0
   -4.0271   -1.1191    0.9777 H   0  0  0  0  0  0  0  0  0  0  0  0
   -3.0415   -0.3840    2.2390 H   0  0  0  0  0  0  0  0  0  0  0  0
   -1.9421   -2.4351    1.1058 H   0  0  0  0  0  0  0  0  0  0  0  0
   -2.4433    2.7962   -1.2780 H   0  0  0  0  0  0  0  0  0  0  0  0
   -2.5215    3.4650    0.3515 H   0  0  0  0  0  0  0  0  0  0  0  0
   -0.9591    3.3109   -0.4537 H   0  0  0  0  0  0  0  0  0  0  0  0
    3.1625    1.4492    2.2702 H   0  0  0  0  0  0  0  0  0  0  0  0
    3.8023   -0.2081    2.1853 H   0  0  0  0  0  0  0  0  0  0  0  0
    4.7514    1.1448    1.5566 H   0  0  0  0  0  0  0  0  0  0  0  0
    4.7042    1.2500   -0.8310 H   0  0  0  0  0  0  0  0  0  0  0  0
    3.2188    0.7208   -1.7930 H   0  0  0  0  0  0  0  0  0  0  0  0
  1 11  2  0  0  0  0
  2  3  1  0  0  0  0
  2  4  1  0  0  0  0
  2  5  1  0  0  0  0
  2  8  1  0  0  0  0
  3  7  1  0  0  0  0
  3 13  1  0  0  0  0
  3 17  1  0  0  0  0
  4  6  1  0  0  0  0
  4 18  1  0  0  0  0
  4 19  1  0  0  0  0
  5 11  1  0  0  0  0
  5 12  2  0  0  0  0
  6  9  1  0  0  0  0
  6 14  1  0  0  0  0
  6 20  1  0  0  0  0
  7 10  1  0  0  0  0
  7 21  1  0  0  0  0
  7 22  1  0  0  0  0
  8 23  1  0  0  0  0
  8 24  1  0  0  0  0
  8 25  1  0  0  0  0
  9 11  1  0  0  0  0
  9 26  1  0  0  0  0
  9 27  1  0  0  0  0
 10 12  1  0  0  0  0
 10 28  1  0  0  0  0
 10 29  1  0  0  0  0
 12 30  1  0  0  0  0
 13 31  1  0  0  0  0
 13 32  1  0  0  0  0
 13 33  1  0  0  0  0
 14 15  1  0  0  0  0
 14 16  2  0  0  0  0
 15 34  1  0  0  0  0
 15 35  1  0  0  0  0
 15 36  1  0  0  0  0
 16 37  1  0  0  0  0
 16 38  1  0  0  0  0
M  END
> <PUBCHEM_COMPOUND_CID>
21591457

> <PUBCHEM_CONFORMER_RMSD>
0.6

> <PUBCHEM_CONFORMER_DIVERSEORDER>
1
2
5
6
3
4

> <PUBCHEM_MMFF94_PARTIAL_CHARGES>
14
1 -0.57
10 0.14
11 0.49
12 -0.29
14 -0.28
15 0.14
16 -0.3
2 0.14
30 0.15
37 0.15
38 0.15
5 -0.12
6 0.14
9 0.06

> <PUBCHEM_EFFECTIVE_ROTOR_COUNT>
2.2

> <PUBCHEM_PHARMACOPHORE_FEATURES>
3
1 1 acceptor
6 2 3 5 7 10 12 rings
6 2 4 5 6 9 11 rings

> <PUBCHEM_HEAVY_ATOM_COUNT>
16

> <PUBCHEM_ATOM_DEF_STEREO_COUNT>
3

> <PUBCHEM_ATOM_UDEF_STEREO_COUNT>
0

> <PUBCHEM_BOND_DEF_STEREO_COUNT>
0

> <PUBCHEM_BOND_UDEF_STEREO_COUNT>
0

> <PUBCHEM_ISOTOPIC_ATOM_COUNT>
0

> <PUBCHEM_COMPONENT_COUNT>
1

> <PUBCHEM_CACTVS_TAUTO_COUNT>
5

> <PUBCHEM_CONFORMER_ID>
014975A100000001

> <PUBCHEM_MMFF94_ENERGY>
38.978

> <PUBCHEM_FEATURE_SELFOVERLAP>
15.248

> <PUBCHEM_SHAPE_FINGERPRINT>
10608611 8 18266182721004871881
11132069 177 18411139155814026257
12011746 2 18410300228536959173
12173636 292 18411139160251866756
12251169 10 18113900463721507184
12382932 28 18335709351007989553
12423570 1 9864514262275946303
12491281 212 15913333523898155968
13024252 1 13407063787168566549
13140716 1 17977946009886986826
13380535 76 18335978662721668193
13764800 53 18410856551118771296
14648413 74 17906175048981297411
14817 1 14293622213140638878
15219456 202 18338805493989237275
15309172 13 18411985779582849354
15375462 478 17968385666210590883
15490181 7 18271240526016658870
15775835 57 17703787007374888529
15852999 172 17825079559530932093
16945 1 18337394945108989023
18186145 218 17561084709300389256
19049666 15 18051137990587063113
19868273 293 11815907751066912976
19930374 2 17749661896818980423
20510252 161 18342745147399806536
20511035 2 18194677073393624582
20645477 56 18271243928321704256
20871998 184 18408892857964197305
21339142 149 17487596731959482958
21501502 16 18265617572186372651
21524375 3 18272649026292309358
22112679 90 17762353799772088118
2334 1 18411139091389464662
23402539 116 18056745740591850167
23419403 2 15894133517015274808
23559900 14 18264215703208189454
2748010 2 18338521820084210318
3250762 1 18048888394344918627
7097593 13 17605256407861763890
7364860 26 17983016648171532342
81228 2 17910661395889050814
90316 7 18190168160675359744

> <PUBCHEM_SHAPE_MULTIPOLES>
323.4
5.42
2.46
1.28
3.59
0.58
0.13
-2.04
-1.94
-1.11
0.37
0.22
-0.14
0.51

> <PUBCHEM_SHAPE_SELFOVERLAP>
668.457

> <PUBCHEM_SHAPE_VOLUME>
184.4

> <PUBCHEM_COORDINATE_TYPE>
2
5
10

$$$$
