101076077
  -OEChem-11212001493D

 57 60  0     1  0  0  0  0  0999 V2000
    1.6585    0.4097    0.4844 O   0  0  0  0  0  0  0  0  0  0  0  0
    0.9762   -1.8103    1.0300 O   0  0  0  0  0  0  0  0  0  0  0  0
    3.7205   -1.9835    0.5898 O   0  0  0  0  0  0  0  0  0  0  0  0
    1.9311   -2.6291   -1.4225 O   0  0  0  0  0  0  0  0  0  0  0  0
    4.2765   -0.3272   -2.5894 O   0  0  0  0  0  0  0  0  0  0  0  0
    7.0213    2.7172    0.3179 O   0  0  0  0  0  0  0  0  0  0  0  0
   -3.5722    0.3555    0.8767 O   0  0  0  0  0  0  0  0  0  0  0  0
    5.4788    2.0787    1.8700 O   0  0  0  0  0  0  0  0  0  0  0  0
   -2.9449   -0.1531   -1.3213 O   0  0  0  0  0  0  0  0  0  0  0  0
   -8.7376    1.1684   -0.9763 O   0  0  0  0  0  0  0  0  0  0  0  0
    3.4246   -0.9730   -0.3843 C   0  0  2  0  0  0  0  0  0  0  0  0
    3.0977    0.3089    0.3999 C   0  0  1  0  0  0  0  0  0  0  0  0
    1.0769   -0.8184   -0.0024 C   0  0  2  0  0  0  0  0  0  0  0  0
    2.0877   -1.2748   -1.0548 C   0  0  2  0  0  0  0  0  0  0  0  0
    4.6434   -0.8508   -1.3159 C   0  0  2  0  0  0  0  0  0  0  0  0
    3.6436    1.5700   -0.2614 C   0  0  0  0  0  0  0  0  0  0  0  0
   -0.3004   -0.5415   -0.6170 C   0  0  0  0  0  0  0  0  0  0  0  0
    5.1644    1.5004   -0.4595 C   0  0  2  0  0  0  0  0  0  0  0  0
    5.6938    0.0718   -0.6887 C   0  0  0  0  0  0  0  0  0  0  0  0
   -1.3280   -0.2013    0.4651 C   0  0  2  0  0  0  0  0  0  0  0  0
   -1.3414   -1.2577    1.5830 C   0  0  2  0  0  0  0  0  0  0  0  0
    0.0925   -1.4452    2.0902 C   0  0  0  0  0  0  0  0  0  0  0  0
    5.8744    2.1132    0.7143 C   0  0  0  0  0  0  0  0  0  0  0  0
   -1.9202   -2.6094    1.1411 C   0  0  0  0  0  0  0  0  0  0  0  0
   -2.6883   -0.0058   -0.1338 C   0  0  0  0  0  0  0  0  0  0  0  0
   -4.8728    0.5602    0.4100 C   0  0  0  0  0  0  0  0  0  0  0  0
   -5.7754   -0.5026    0.3721 C   0  0  0  0  0  0  0  0  0  0  0  0
   -5.2689    1.8273   -0.0180 C   0  0  0  0  0  0  0  0  0  0  0  0
   -7.0742   -0.2982   -0.0938 C   0  0  0  0  0  0  0  0  0  0  0  0
   -6.5675    2.0317   -0.4839 C   0  0  0  0  0  0  0  0  0  0  0  0
   -7.4703    0.9690   -0.5217 C   0  0  0  0  0  0  0  0  0  0  0  0
    3.4632    0.2510    1.4322 H   0  0  0  0  0  0  0  0  0  0  0  0
    1.9627   -0.6561   -1.9520 H   0  0  0  0  0  0  0  0  0  0  0  0
    5.0849   -1.8402   -1.4848 H   0  0  0  0  0  0  0  0  0  0  0  0
    3.3490    2.4536    0.3191 H   0  0  0  0  0  0  0  0  0  0  0  0
    3.1523    1.7022   -1.2349 H   0  0  0  0  0  0  0  0  0  0  0  0
   -0.6350   -1.4213   -1.1810 H   0  0  0  0  0  0  0  0  0  0  0  0
   -0.2354    0.2917   -1.3287 H   0  0  0  0  0  0  0  0  0  0  0  0
    5.3912    2.1196   -1.3383 H   0  0  0  0  0  0  0  0  0  0  0  0
    6.5677    0.1360   -1.3501 H   0  0  0  0  0  0  0  0  0  0  0  0
    6.0568   -0.3644    0.2504 H   0  0  0  0  0  0  0  0  0  0  0  0
   -1.0410    0.7678    0.8975 H   0  0  0  0  0  0  0  0  0  0  0  0
   -1.9529   -0.8992    2.4209 H   0  0  0  0  0  0  0  0  0  0  0  0
    0.4611   -0.5327    2.5738 H   0  0  0  0  0  0  0  0  0  0  0  0
    0.1322   -2.2408    2.8420 H   0  0  0  0  0  0  0  0  0  0  0  0
    4.5215   -1.7202    1.0731 H   0  0  0  0  0  0  0  0  0  0  0  0
    2.6592   -2.8541   -2.0263 H   0  0  0  0  0  0  0  0  0  0  0  0
    5.0826   -0.2786   -3.1309 H   0  0  0  0  0  0  0  0  0  0  0  0
   -1.3531   -3.0541    0.3177 H   0  0  0  0  0  0  0  0  0  0  0  0
   -2.9621   -2.5125    0.8213 H   0  0  0  0  0  0  0  0  0  0  0  0
   -1.9033   -3.3206    1.9744 H   0  0  0  0  0  0  0  0  0  0  0  0
    7.5000    3.1246    1.0710 H   0  0  0  0  0  0  0  0  0  0  0  0
   -5.4731   -1.4917    0.7050 H   0  0  0  0  0  0  0  0  0  0  0  0
   -4.5701    2.6590    0.0098 H   0  0  0  0  0  0  0  0  0  0  0  0
   -7.7728   -1.1299   -0.1208 H   0  0  0  0  0  0  0  0  0  0  0  0
   -6.8636    3.0237   -0.8144 H   0  0  0  0  0  0  0  0  0  0  0  0
   -8.8380    2.1020   -1.2301 H   0  0  0  0  0  0  0  0  0  0  0  0
  1 12  1  0  0  0  0
  1 13  1  0  0  0  0
  2 13  1  0  0  0  0
  2 22  1  0  0  0  0
  3 11  1  0  0  0  0
  3 46  1  0  0  0  0
  4 14  1  0  0  0  0
  4 47  1  0  0  0  0
  5 15  1  0  0  0  0
  5 48  1  0  0  0  0
  6 23  1  0  0  0  0
  6 52  1  0  0  0  0
  7 25  1  0  0  0  0
  7 26  1  0  0  0  0
  8 23  2  0  0  0  0
  9 25  2  0  0  0  0
 10 31  1  0  0  0  0
 10 57  1  0  0  0  0
 11 12  1  0  0  0  0
 11 14  1  0  0  0  0
 11 15  1  0  0  0  0
 12 16  1  0  0  0  0
 12 32  1  0  0  0  0
 13 14  1  0  0  0  0
 13 17  1  0  0  0  0
 14 33  1  0  0  0  0
 15 19  1  0  0  0  0
 15 34  1  0  0  0  0
 16 18  1  0  0  0  0
 16 35  1  0  0  0  0
 16 36  1  0  0  0  0
 17 20  1  0  0  0  0
 17 37  1  0  0  0  0
 17 38  1  0  0  0  0
 18 19  1  0  0  0  0
 18 23  1  0  0  0  0
 18 39  1  0  0  0  0
 19 40  1  0  0  0  0
 19 41  1  0  0  0  0
 20 21  1  0  0  0  0
 20 25  1  0  0  0  0
 20 42  1  0  0  0  0
 21 22  1  0  0  0  0
 21 24  1  0  0  0  0
 21 43  1  0  0  0  0
 22 44  1  0  0  0  0
 22 45  1  0  0  0  0
 24 49  1  0  0  0  0
 24 50  1  0  0  0  0
 24 51  1  0  0  0  0
 26 27  2  0  0  0  0
 26 28  1  0  0  0  0
 27 29  1  0  0  0  0
 27 53  1  0  0  0  0
 28 30  2  0  0  0  0
 28 54  1  0  0  0  0
 29 31  2  0  0  0  0
 29 55  1  0  0  0  0
 30 31  1  0  0  0  0
 30 56  1  0  0  0  0
M  END
> <PUBCHEM_COMPOUND_CID>
101076077

> <PUBCHEM_CONFORMER_RMSD>
0.8

> <PUBCHEM_CONFORMER_DIVERSEORDER>
1
43
67
49
41
4
58
35
16
24
31
25
7
28
18
33
45
52
5
36
20
30
68
29
34
44
42
39
9
55
59
61
62
48
47
21
23
3
38
27
11
56
66
60
8
63
46
65
26
40
17
64
12
15
54
37
14
32
51
2
6
13
19
22
57
53
10
50

> <PUBCHEM_MMFF94_PARTIAL_CHARGES>
35
1 -0.56
10 -0.53
11 0.28
12 0.28
13 0.56
14 0.28
15 0.28
18 0.06
2 -0.56
20 0.06
22 0.28
23 0.66
25 0.66
26 0.08
27 -0.15
28 -0.15
29 -0.15
3 -0.68
30 -0.15
31 0.08
4 -0.68
46 0.4
47 0.4
48 0.4
5 -0.68
52 0.5
53 0.15
54 0.15
55 0.15
56 0.15
57 0.45
6 -0.65
7 -0.23
8 -0.57
9 -0.57

> <PUBCHEM_EFFECTIVE_ROTOR_COUNT>
6.2

> <PUBCHEM_PHARMACOPHORE_FEATURES>
17
1 1 acceptor
1 10 donor
1 2 acceptor
1 3 acceptor
1 3 donor
1 4 acceptor
1 4 donor
1 5 acceptor
1 5 donor
1 6 acceptor
1 8 acceptor
1 9 acceptor
3 6 8 23 anion
5 1 11 12 13 14 rings
6 11 12 15 16 18 19 rings
6 2 13 17 20 21 22 rings
6 26 27 28 29 30 31 rings

> <PUBCHEM_HEAVY_ATOM_COUNT>
31

> <PUBCHEM_ATOM_DEF_STEREO_COUNT>
8

> <PUBCHEM_ATOM_UDEF_STEREO_COUNT>
0

> <PUBCHEM_BOND_DEF_STEREO_COUNT>
0

> <PUBCHEM_BOND_UDEF_STEREO_COUNT>
0

> <PUBCHEM_ISOTOPIC_ATOM_COUNT>
0

> <PUBCHEM_COMPONENT_COUNT>
1

> <PUBCHEM_CACTVS_TAUTO_COUNT>
8

> <PUBCHEM_CONFORMER_ID>
06064C6D00000001

> <PUBCHEM_MMFF94_ENERGY>
101.7944

> <PUBCHEM_FEATURE_SELFOVERLAP>
86.489

> <PUBCHEM_SHAPE_FINGERPRINT>
10 15 16877946065630532308
10411042 1 17839187308362510030
10666366 153 11240005538613731689
10673678 19 18059576922834889100
11409948 41 16558203601503679092
117089 54 11676524814437080632
11991303 11 17131822193199782925
12166972 35 14620791587748059939
12633257 1 17241045526197432212
12730499 353 18412554197093377098
13533116 47 17968939678311111434
13540713 5 15265684775396331342
13673619 4 9511466627620894387
13685833 64 9727638301712314837
13690498 29 16629105771549653375
14461889 52 18260833747307284867
14556957 393 16128391396879468513
14767858 380 16056885727492040371
15183329 4 16845857888584613329
15238133 3 17676776469826777060
15348495 7 7925327625429463813
17980427 23 17532373265307001598
1813 80 13183017402283258043
18222031 100 12463570681577759082
20105231 36 13542462099469850573
20157964 124 18273217486799216444
2026 5 11383017899363910004
20511986 3 17531237328546754395
20554085 129 17894625959421766897
20715895 44 18408606989510743312
21033648 29 17967538981837510800
21150785 3 17489584567889988765
21267235 1 10879996869493053785
21424621 283 18259984877286253363
21521721 280 18342183254609622995
21641784 216 16343432721588340297
21792934 111 17095793327060563821
22149856 69 17386864828964449273
22224240 67 17530962493156674409
23081809 10 16128382532478015851
23516275 100 18337668719490517564
23559900 14 17968107413171989230
23569914 2 17761442068748096909
24771293 8 18114462352934493165
25269216 80 17488452156654379823
2916195 48 18334577940837441009
3004659 81 13183019631112671945
3472631 163 18187088377045122511
34797466 226 17775292646760289573
4073 2 18334017236946700571
4093350 32 18060422404437706756
4340502 62 17748821921675661130
46194498 28 17774729649620419516
465052 167 10737283541779151112
5104073 3 17676207965958383931
5385378 56 17458337507784377122
5758199 1 18040155098524647457
59682541 52 17632579318560894940
6058803 2 15264286179763599754

> <PUBCHEM_SHAPE_MULTIPOLES>
579.27
20.42
2.47
1.52
24.32
0.05
0.08
15.71
3.19
-1.9
-0.57
-1.55
-0.42
2.28

> <PUBCHEM_SHAPE_SELFOVERLAP>
1253.589

> <PUBCHEM_SHAPE_VOLUME>
311.8

> <PUBCHEM_COORDINATE_TYPE>
2
5
10

$$$$
