101600095
  -OEChem-11212001493D

 81 86  0     1  0  0  0  0  0999 V2000
   -6.7869   -1.4359    0.4359 O   0  0  0  0  0  0  0  0  0  0  0  0
    0.9842    0.8524    0.3888 C   0  0  2  0  0  0  0  0  0  0  0  0
    1.7618   -0.4098   -0.0578 C   0  0  2  0  0  0  0  0  0  0  0  0
    1.2794   -0.2472    1.3780 C   0  0  0  0  0  0  0  0  0  0  0  0
   -0.5082    1.0473   -0.1112 C   0  0  1  0  0  0  0  0  0  0  0  0
    3.2948   -0.3652   -0.3058 C   0  0  1  0  0  0  0  0  0  0  0  0
   -1.1644   -0.3516   -0.4349 C   0  0  2  0  0  0  0  0  0  0  0  0
    1.0454   -1.4916   -0.8697 C   0  0  0  0  0  0  0  0  0  0  0  0
    1.7516    2.1455    0.6437 C   0  0  0  0  0  0  0  0  0  0  0  0
    3.8786    1.0911   -0.3320 C   0  0  1  0  0  0  0  0  0  0  0  0
   -0.2979   -1.0835   -1.4714 C   0  0  0  0  0  0  0  0  0  0  0  0
   -2.7324   -0.3684   -0.6994 C   0  0  2  0  0  0  0  0  0  0  0  0
    3.2579    1.9657    0.7781 C   0  0  0  0  0  0  0  0  0  0  0  0
   -1.3342    1.7330    1.0026 C   0  0  0  0  0  0  0  0  0  0  0  0
    4.1247   -1.2884    0.6443 C   0  0  2  0  0  0  0  0  0  0  0  0
   -3.4117    0.3538    0.5270 C   0  0  1  0  0  0  0  0  0  0  0  0
   -0.4802    1.9845   -1.3498 C   0  0  0  0  0  0  0  0  0  0  0  0
   -2.8406    1.7724    0.7267 C   0  0  0  0  0  0  0  0  0  0  0  0
    5.4171    1.0971   -0.1033 C   0  0  0  0  0  0  0  0  0  0  0  0
    5.6030   -1.4055    0.1566 C   0  0  1  0  0  0  0  0  0  0  0  0
   -3.2304   -1.8480   -0.6997 C   0  0  0  0  0  0  0  0  0  0  0  0
    3.6027    1.7169   -1.7204 C   0  0  0  0  0  0  0  0  0  0  0  0
   -4.9810    0.2462    0.6131 C   0  0  0  0  0  0  0  0  0  0  0  0
    6.0798   -0.1692   -0.6211 C   0  0  0  0  0  0  0  0  0  0  0  0
   -3.0910    0.2394   -2.0739 C   0  0  0  0  0  0  0  0  0  0  0  0
    3.5433   -2.7024    0.7938 C   0  0  0  0  0  0  0  0  0  0  0  0
   -4.7495   -1.9967   -0.6475 C   0  0  0  0  0  0  0  0  0  0  0  0
   -5.3737   -1.2602    0.5326 C   0  0  2  0  0  0  0  0  0  0  0  0
    6.5457   -1.6834    1.3369 C   0  0  0  0  0  0  0  0  0  0  0  0
   -5.4648    0.7825    1.9901 C   0  0  0  0  0  0  0  0  0  0  0  0
   -5.7232    1.0791   -0.4504 C   0  0  0  0  0  0  0  0  0  0  0  0
    1.9982   -0.0606    2.1681 H   0  0  0  0  0  0  0  0  0  0  0  0
    0.4875   -0.8855    1.7482 H   0  0  0  0  0  0  0  0  0  0  0  0
    3.4514   -0.7724   -1.3154 H   0  0  0  0  0  0  0  0  0  0  0  0
   -1.0830   -0.9504    0.4816 H   0  0  0  0  0  0  0  0  0  0  0  0
    0.8804   -2.3633   -0.2243 H   0  0  0  0  0  0  0  0  0  0  0  0
    1.6788   -1.8470   -1.6907 H   0  0  0  0  0  0  0  0  0  0  0  0
    1.5907    2.8667   -0.1599 H   0  0  0  0  0  0  0  0  0  0  0  0
    1.3714    2.6161    1.5583 H   0  0  0  0  0  0  0  0  0  0  0  0
   -0.1277   -0.4670   -2.3590 H   0  0  0  0  0  0  0  0  0  0  0  0
   -0.7845   -1.9945   -1.8315 H   0  0  0  0  0  0  0  0  0  0  0  0
    3.7244    2.9601    0.7773 H   0  0  0  0  0  0  0  0  0  0  0  0
    3.4876    1.5368    1.7614 H   0  0  0  0  0  0  0  0  0  0  0  0
   -0.9832    2.7598    1.1647 H   0  0  0  0  0  0  0  0  0  0  0  0
   -1.1688    1.2116    1.9549 H   0  0  0  0  0  0  0  0  0  0  0  0
    4.1236   -0.8369    1.6451 H   0  0  0  0  0  0  0  0  0  0  0  0
   -3.0664   -0.2076    1.4123 H   0  0  0  0  0  0  0  0  0  0  0  0
   -1.4395    2.0815   -1.8476 H   0  0  0  0  0  0  0  0  0  0  0  0
    0.2487    1.6552   -2.0951 H   0  0  0  0  0  0  0  0  0  0  0  0
   -0.2149    3.0106   -1.0742 H   0  0  0  0  0  0  0  0  0  0  0  0
   -3.3050    2.2579    1.5902 H   0  0  0  0  0  0  0  0  0  0  0  0
   -3.0531    2.4148   -0.1325 H   0  0  0  0  0  0  0  0  0  0  0  0
    5.6487    1.1962    0.9653 H   0  0  0  0  0  0  0  0  0  0  0  0
    5.8708    1.9719   -0.5861 H   0  0  0  0  0  0  0  0  0  0  0  0
    5.6899   -2.2606   -0.5279 H   0  0  0  0  0  0  0  0  0  0  0  0
   -2.8078   -2.3795    0.1632 H   0  0  0  0  0  0  0  0  0  0  0  0
   -2.8731   -2.3751   -1.5917 H   0  0  0  0  0  0  0  0  0  0  0  0
    2.5466    1.6625   -1.9950 H   0  0  0  0  0  0  0  0  0  0  0  0
    4.1626    1.1995   -2.5074 H   0  0  0  0  0  0  0  0  0  0  0  0
    3.8997    2.7715   -1.7445 H   0  0  0  0  0  0  0  0  0  0  0  0
    5.8449   -0.2966   -1.6850 H   0  0  0  0  0  0  0  0  0  0  0  0
    7.1703   -0.0701   -0.5646 H   0  0  0  0  0  0  0  0  0  0  0  0
   -3.3076    1.3078   -2.0213 H   0  0  0  0  0  0  0  0  0  0  0  0
   -3.9732   -0.2212   -2.5249 H   0  0  0  0  0  0  0  0  0  0  0  0
   -2.2934    0.0902   -2.8074 H   0  0  0  0  0  0  0  0  0  0  0  0
    4.2007   -3.3456    1.3869 H   0  0  0  0  0  0  0  0  0  0  0  0
    2.5816   -2.6889    1.3128 H   0  0  0  0  0  0  0  0  0  0  0  0
    3.4068   -3.1791   -0.1825 H   0  0  0  0  0  0  0  0  0  0  0  0
   -5.2145   -1.6750   -1.5857 H   0  0  0  0  0  0  0  0  0  0  0  0
   -4.9963   -3.0643   -0.5746 H   0  0  0  0  0  0  0  0  0  0  0  0
   -5.0537   -1.7578    1.4578 H   0  0  0  0  0  0  0  0  0  0  0  0
    6.5356   -0.8592    2.0579 H   0  0  0  0  0  0  0  0  0  0  0  0
    7.5759   -1.8118    0.9872 H   0  0  0  0  0  0  0  0  0  0  0  0
    6.2669   -2.5984    1.8673 H   0  0  0  0  0  0  0  0  0  0  0  0
   -6.5262    0.5604    2.1513 H   0  0  0  0  0  0  0  0  0  0  0  0
   -6.7975    1.1259   -0.2344 H   0  0  0  0  0  0  0  0  0  0  0  0
   -5.6340    0.6623   -1.4540 H   0  0  0  0  0  0  0  0  0  0  0  0
   -5.3617    2.1119   -0.4774 H   0  0  0  0  0  0  0  0  0  0  0  0
   -5.3573    1.8690    2.0689 H   0  0  0  0  0  0  0  0  0  0  0  0
   -4.9063    0.3238    2.8135 H   0  0  0  0  0  0  0  0  0  0  0  0
   -6.9690   -2.3908    0.4606 H   0  0  0  0  0  0  0  0  0  0  0  0
  1 28  1  0  0  0  0
  1 81  1  0  0  0  0
  2  3  1  0  0  0  0
  2  4  1  0  0  0  0
  2  5  1  0  0  0  0
  2  9  1  0  0  0  0
  3  4  1  0  0  0  0
  3  6  1  0  0  0  0
  3  8  1  0  0  0  0
  4 32  1  0  0  0  0
  4 33  1  0  0  0  0
  5  7  1  0  0  0  0
  5 14  1  0  0  0  0
  5 17  1  0  0  0  0
  6 10  1  0  0  0  0
  6 15  1  0  0  0  0
  6 34  1  0  0  0  0
  7 11  1  0  0  0  0
  7 12  1  0  0  0  0
  7 35  1  0  0  0  0
  8 11  1  0  0  0  0
  8 36  1  0  0  0  0
  8 37  1  0  0  0  0
  9 13  1  0  0  0  0
  9 38  1  0  0  0  0
  9 39  1  0  0  0  0
 10 13  1  0  0  0  0
 10 19  1  0  0  0  0
 10 22  1  0  0  0  0
 11 40  1  0  0  0  0
 11 41  1  0  0  0  0
 12 16  1  0  0  0  0
 12 21  1  0  0  0  0
 12 25  1  0  0  0  0
 13 42  1  0  0  0  0
 13 43  1  0  0  0  0
 14 18  1  0  0  0  0
 14 44  1  0  0  0  0
 14 45  1  0  0  0  0
 15 20  1  0  0  0  0
 15 26  1  0  0  0  0
 15 46  1  0  0  0  0
 16 18  1  0  0  0  0
 16 23  1  0  0  0  0
 16 47  1  0  0  0  0
 17 48  1  0  0  0  0
 17 49  1  0  0  0  0
 17 50  1  0  0  0  0
 18 51  1  0  0  0  0
 18 52  1  0  0  0  0
 19 24  1  0  0  0  0
 19 53  1  0  0  0  0
 19 54  1  0  0  0  0
 20 24  1  0  0  0  0
 20 29  1  0  0  0  0
 20 55  1  0  0  0  0
 21 27  1  0  0  0  0
 21 56  1  0  0  0  0
 21 57  1  0  0  0  0
 22 58  1  0  0  0  0
 22 59  1  0  0  0  0
 22 60  1  0  0  0  0
 23 28  1  0  0  0  0
 23 30  1  0  0  0  0
 23 31  1  0  0  0  0
 24 61  1  0  0  0  0
 24 62  1  0  0  0  0
 25 63  1  0  0  0  0
 25 64  1  0  0  0  0
 25 65  1  0  0  0  0
 26 66  1  0  0  0  0
 26 67  1  0  0  0  0
 26 68  1  0  0  0  0
 27 28  1  0  0  0  0
 27 69  1  0  0  0  0
 27 70  1  0  0  0  0
 28 71  1  0  0  0  0
 29 72  1  0  0  0  0
 29 73  1  0  0  0  0
 29 74  1  0  0  0  0
 30 75  1  0  0  0  0
 30 79  1  0  0  0  0
 30 80  1  0  0  0  0
 31 76  1  0  0  0  0
 31 77  1  0  0  0  0
 31 78  1  0  0  0  0
M  END
> <PUBCHEM_COMPOUND_CID>
101600095

> <PUBCHEM_CONFORMER_RMSD>
0.8

> <PUBCHEM_CONFORMER_DIVERSEORDER>
1

> <PUBCHEM_MMFF94_PARTIAL_CHARGES>
12
1 -0.68
2 -0.19
28 0.28
3 -0.19
32 0.1
33 0.1
4 -0.2
5 0.09
6 0.09
8 0.09
81 0.4
9 0.09

> <PUBCHEM_EFFECTIVE_ROTOR_COUNT>
3

> <PUBCHEM_PHARMACOPHORE_FEATURES>
8
1 1 acceptor
1 1 donor
3 23 30 31 hydrophobe
6 12 16 21 23 27 28 rings
6 5 7 12 14 16 18 rings
6 6 10 15 19 20 24 rings
7 2 3 4 5 7 8 11 rings
7 2 3 4 6 9 10 13 rings

> <PUBCHEM_HEAVY_ATOM_COUNT>
31

> <PUBCHEM_ATOM_DEF_STEREO_COUNT>
11

> <PUBCHEM_ATOM_UDEF_STEREO_COUNT>
0

> <PUBCHEM_BOND_DEF_STEREO_COUNT>
0

> <PUBCHEM_BOND_UDEF_STEREO_COUNT>
0

> <PUBCHEM_ISOTOPIC_ATOM_COUNT>
0

> <PUBCHEM_COMPONENT_COUNT>
1

> <PUBCHEM_CACTVS_TAUTO_COUNT>
1

> <PUBCHEM_CONFORMER_ID>
060E4B5F00000001

> <PUBCHEM_MMFF94_ENERGY>
142.3527

> <PUBCHEM_FEATURE_SELFOVERLAP>
40.722

> <PUBCHEM_SHAPE_FINGERPRINT>
10366900 7 15068618284063127812
11135609 12 17845378765353535158
11578080 2 14780982838191596661
12107183 9 17835523713077456147
12166972 35 18113339725961385604
12236239 1 18410014338165270864
12422481 6 18130793304361847143
12616971 3 18408042913790139068
12633257 1 18131354081489052137
12788726 201 17561095695647833176
13140716 1 18059285569180111818
13224815 77 18341891909017162045
13782708 43 16805599236068939322
14068700 675 17129557272335276807
14341114 176 18412547621429335963
14341114 328 18343025484115146947
14790565 3 18059299862863382801
14849402 71 18340766065884456640
14856354 85 18271813457869754231
14955137 171 18338523061636129549
15131766 46 17825682306974118069
15142383 8 18338795615659648844
15183329 4 18273215300529052628
15196674 1 18272650190070022077
15238133 3 16917075425552765785
15250474 111 18271515489823390703
15685185 35 17756719886056695308
15788980 27 17967532367524584421
15799311 1 18262250991930868147
15927050 60 17481702374930605196
1601671 61 17917999373009276948
17349148 13 18260267443358587424
17492 89 18120652432038107562
17844677 252 18113338596136819997
17857418 61 18411980252033714538
1813 80 18187094939939832661
19319366 153 18335135432183503754
19377110 9 18411696587051009602
20028762 73 18202280320685572582
21033648 29 17676472960903161509
21267235 1 18341334410369159038
21792934 111 18272079496918417977
22950370 63 18410855477313305734
23522609 53 18194994956513405800
23559900 14 18272080638926284849
23569914 152 15291492469184393587
23569943 247 17896312524212373506
3004659 81 18411986858326470550
335352 9 18201719548285208373
3411729 13 17130411597186164024
350125 39 18341892983123132160
3680242 22 18342746178149726946
392239 28 18411709776837839075
4073 2 18190182475790762554
4093350 32 16343426211299165968
4098825 35 17822006480360897125
439807 62 18334859441879673131
460360 51 18196098741659287829
46194498 28 17168145676303947308
463206 1 18337669814974929986
465052 167 18412830200381622214
5104073 3 18131068276726391202
513202 73 18040716914195434237
54039377 194 18336266731344291790
6081469 158 18259696801451035671
6086070 43 17774704429868076717
7495541 125 18411981381842332320
9849439 229 15836519219463322921

> <PUBCHEM_SHAPE_MULTIPOLES>
632.1
15.33
2.44
1.49
1.47
0.21
-0.17
5.02
3.16
-0.9
0.15
0.53
-0.2
-1.45

> <PUBCHEM_SHAPE_SELFOVERLAP>
1344.925

> <PUBCHEM_SHAPE_VOLUME>
346.5

> <PUBCHEM_COORDINATE_TYPE>
2
5
10

$$$$
