523382
  -OEChem-11212000493D

 70 70  0     1  0  0  0  0  0999 V2000
   -1.3671    2.1803   -1.9789 Si  0  0  0  0  0  0  0  0  0  0  0  0
   -4.3631   -0.7672    0.4457 Si  0  0  0  0  0  0  0  0  0  0  0  0
    1.4466   -2.8012   -1.0814 Si  0  0  0  0  0  0  0  0  0  0  0  0
    4.6751    0.9480    0.4578 Si  0  0  0  0  0  0  0  0  0  0  0  0
    0.0630    0.9913    1.9470 O   0  0  0  0  0  0  0  0  0  0  0  0
   -1.6620    1.6998   -0.4020 O   0  0  0  0  0  0  0  0  0  0  0  0
   -3.3142    0.2759    1.2377 O   0  0  0  0  0  0  0  0  0  0  0  0
    1.0837   -1.1907   -0.7996 O   0  0  0  0  0  0  0  0  0  0  0  0
    3.0866    0.4949    0.1732 O   0  0  0  0  0  0  0  0  0  0  0  0
   -1.6440    0.9673    3.4851 O   0  0  0  0  0  0  0  0  0  0  0  0
    0.2346    0.5843    0.5724 C   0  0  2  0  0  0  0  0  0  0  0  0
   -1.1834    0.4318    0.0469 C   0  0  1  0  0  0  0  0  0  0  0  0
   -1.9435   -0.0173    1.2784 C   0  0  1  0  0  0  0  0  0  0  0  0
    1.0424   -0.7051    0.5412 C   0  0  2  0  0  0  0  0  0  0  0  0
   -1.2048    0.6970    2.3791 C   0  0  0  0  0  0  0  0  0  0  0  0
    2.4728   -0.4776    1.0124 C   0  0  0  0  0  0  0  0  0  0  0  0
   -2.1386    0.9878   -3.2124 C   0  0  0  0  0  0  0  0  0  0  0  0
    0.4783    2.2895   -2.3258 C   0  0  0  0  0  0  0  0  0  0  0  0
   -2.1157    3.8845   -2.2709 C   0  0  0  0  0  0  0  0  0  0  0  0
   -4.7725   -2.2604    1.5138 C   0  0  0  0  0  0  0  0  0  0  0  0
   -5.9685    0.0998   -0.0121 C   0  0  0  0  0  0  0  0  0  0  0  0
   -3.5646   -1.3900   -1.1433 C   0  0  0  0  0  0  0  0  0  0  0  0
    3.2981   -3.1143   -0.9695 C   0  0  0  0  0  0  0  0  0  0  0  0
    0.5955   -3.8763    0.2109 C   0  0  0  0  0  0  0  0  0  0  0  0
    0.8482   -3.3493   -2.7783 C   0  0  0  0  0  0  0  0  0  0  0  0
    4.8736    1.6974    2.1716 C   0  0  0  0  0  0  0  0  0  0  0  0
    5.8407   -0.5209    0.3081 C   0  0  0  0  0  0  0  0  0  0  0  0
    5.2028    2.2408   -0.8072 C   0  0  0  0  0  0  0  0  0  0  0  0
    0.7714    1.3951    0.0811 H   0  0  0  0  0  0  0  0  0  0  0  0
   -1.2396   -0.2964   -0.7624 H   0  0  0  0  0  0  0  0  0  0  0  0
   -1.7721   -1.0862    1.4750 H   0  0  0  0  0  0  0  0  0  0  0  0
    0.5710   -1.4276    1.2187 H   0  0  0  0  0  0  0  0  0  0  0  0
    3.0573   -1.3979    1.0249 H   0  0  0  0  0  0  0  0  0  0  0  0
    2.4508   -0.1044    2.0451 H   0  0  0  0  0  0  0  0  0  0  0  0
   -1.8687    1.2968   -4.2279 H   0  0  0  0  0  0  0  0  0  0  0  0
   -3.2291    1.0142   -3.1513 H   0  0  0  0  0  0  0  0  0  0  0  0
   -1.7666   -0.0306   -3.0779 H   0  0  0  0  0  0  0  0  0  0  0  0
    0.9709    2.9635   -1.6190 H   0  0  0  0  0  0  0  0  0  0  0  0
    0.6468    2.6802   -3.3341 H   0  0  0  0  0  0  0  0  0  0  0  0
    0.9517    1.3056   -2.2683 H   0  0  0  0  0  0  0  0  0  0  0  0
   -1.6748    4.6178   -1.5893 H   0  0  0  0  0  0  0  0  0  0  0  0
   -1.9337    4.2138   -3.2981 H   0  0  0  0  0  0  0  0  0  0  0  0
   -3.1962    3.8615   -2.1014 H   0  0  0  0  0  0  0  0  0  0  0  0
    3.5478   -4.0509   -1.4782 H   0  0  0  0  0  0  0  0  0  0  0  0
    3.6380   -3.2079    0.0646 H   0  0  0  0  0  0  0  0  0  0  0  0
    3.8525   -2.3087   -1.4580 H   0  0  0  0  0  0  0  0  0  0  0  0
   -0.4735   -3.6479    0.2571 H   0  0  0  0  0  0  0  0  0  0  0  0
    0.7089   -4.9345   -0.0434 H   0  0  0  0  0  0  0  0  0  0  0  0
    1.0300   -3.7202    1.2025 H   0  0  0  0  0  0  0  0  0  0  0  0
    1.3369   -2.7655   -3.5637 H   0  0  0  0  0  0  0  0  0  0  0  0
    1.0722   -4.4070   -2.9444 H   0  0  0  0  0  0  0  0  0  0  0  0
   -0.2329   -3.2073   -2.8666 H   0  0  0  0  0  0  0  0  0  0  0  0
   -5.2485   -1.9451    2.4469 H   0  0  0  0  0  0  0  0  0  0  0  0
   -5.4558   -2.9343    0.9886 H   0  0  0  0  0  0  0  0  0  0  0  0
   -3.8638   -2.8165    1.7620 H   0  0  0  0  0  0  0  0  0  0  0  0
   -6.4788    0.4609    0.8855 H   0  0  0  0  0  0  0  0  0  0  0  0
   -5.7686    0.9563   -0.6628 H   0  0  0  0  0  0  0  0  0  0  0  0
   -6.6398   -0.5845   -0.5391 H   0  0  0  0  0  0  0  0  0  0  0  0
   -2.6074   -1.8848   -0.9695 H   0  0  0  0  0  0  0  0  0  0  0  0
   -4.2257   -2.1313   -1.6052 H   0  0  0  0  0  0  0  0  0  0  0  0
   -3.4686   -0.5761   -1.8441 H   0  0  0  0  0  0  0  0  0  0  0  0
    4.2035    2.5533    2.2955 H   0  0  0  0  0  0  0  0  0  0  0  0
    5.9013    2.0395    2.3250 H   0  0  0  0  0  0  0  0  0  0  0  0
    4.6385    0.9612    2.9457 H   0  0  0  0  0  0  0  0  0  0  0  0
    6.8727   -0.2103    0.4970 H   0  0  0  0  0  0  0  0  0  0  0  0
    5.7921   -0.9496   -0.6968 H   0  0  0  0  0  0  0  0  0  0  0  0
    5.5810   -1.3000    1.0305 H   0  0  0  0  0  0  0  0  0  0  0  0
    4.5628    3.1255   -0.7393 H   0  0  0  0  0  0  0  0  0  0  0  0
    6.2381    2.5485   -0.6343 H   0  0  0  0  0  0  0  0  0  0  0  0
    5.1265    1.8370   -1.8209 H   0  0  0  0  0  0  0  0  0  0  0  0
  1  6  1  0  0  0  0
  1 17  1  0  0  0  0
  1 18  1  0  0  0  0
  1 19  1  0  0  0  0
  2  7  1  0  0  0  0
  2 20  1  0  0  0  0
  2 21  1  0  0  0  0
  2 22  1  0  0  0  0
  3  8  1  0  0  0  0
  3 23  1  0  0  0  0
  3 24  1  0  0  0  0
  3 25  1  0  0  0  0
  4  9  1  0  0  0  0
  4 26  1  0  0  0  0
  4 27  1  0  0  0  0
  4 28  1  0  0  0  0
  5 11  1  0  0  0  0
  5 15  1  0  0  0  0
  6 12  1  0  0  0  0
  7 13  1  0  0  0  0
  8 14  1  0  0  0  0
  9 16  1  0  0  0  0
 10 15  2  0  0  0  0
 11 12  1  0  0  0  0
 11 14  1  0  0  0  0
 11 29  1  0  0  0  0
 12 13  1  0  0  0  0
 12 30  1  0  0  0  0
 13 15  1  0  0  0  0
 13 31  1  0  0  0  0
 14 16  1  0  0  0  0
 14 32  1  0  0  0  0
 16 33  1  0  0  0  0
 16 34  1  0  0  0  0
 17 35  1  0  0  0  0
 17 36  1  0  0  0  0
 17 37  1  0  0  0  0
 18 38  1  0  0  0  0
 18 39  1  0  0  0  0
 18 40  1  0  0  0  0
 19 41  1  0  0  0  0
 19 42  1  0  0  0  0
 19 43  1  0  0  0  0
 20 53  1  0  0  0  0
 20 54  1  0  0  0  0
 20 55  1  0  0  0  0
 21 56  1  0  0  0  0
 21 57  1  0  0  0  0
 21 58  1  0  0  0  0
 22 59  1  0  0  0  0
 22 60  1  0  0  0  0
 22 61  1  0  0  0  0
 23 44  1  0  0  0  0
 23 45  1  0  0  0  0
 23 46  1  0  0  0  0
 24 47  1  0  0  0  0
 24 48  1  0  0  0  0
 24 49  1  0  0  0  0
 25 50  1  0  0  0  0
 25 51  1  0  0  0  0
 25 52  1  0  0  0  0
 26 62  1  0  0  0  0
 26 63  1  0  0  0  0
 26 64  1  0  0  0  0
 27 65  1  0  0  0  0
 27 66  1  0  0  0  0
 27 67  1  0  0  0  0
 28 68  1  0  0  0  0
 28 69  1  0  0  0  0
 28 70  1  0  0  0  0
M  END
> <PUBCHEM_COMPOUND_CID>
523382

> <PUBCHEM_CONFORMER_RMSD>
1.8

> <PUBCHEM_CONFORMER_DIVERSEORDER>
1
2
13
6
12
3
14
9
8
7
5
11
4
10

> <PUBCHEM_MMFF94_PARTIAL_CHARGES>
28
1 0.54
10 -0.57
11 0.28
12 0.28
13 0.34
14 0.28
15 0.66
16 0.28
17 -0.08
18 -0.08
19 -0.08
2 0.54
20 -0.08
21 -0.08
22 -0.08
23 -0.08
24 -0.08
25 -0.08
26 -0.08
27 -0.08
28 -0.08
3 0.54
4 0.54
5 -0.43
6 -0.58
7 -0.58
8 -0.58
9 -0.58

> <PUBCHEM_EFFECTIVE_ROTOR_COUNT>
10.8

> <PUBCHEM_PHARMACOPHORE_FEATURES>
2
1 10 acceptor
5 5 11 12 13 15 rings

> <PUBCHEM_HEAVY_ATOM_COUNT>
28

> <PUBCHEM_ATOM_DEF_STEREO_COUNT>
0

> <PUBCHEM_ATOM_UDEF_STEREO_COUNT>
4

> <PUBCHEM_BOND_DEF_STEREO_COUNT>
0

> <PUBCHEM_BOND_UDEF_STEREO_COUNT>
0

> <PUBCHEM_ISOTOPIC_ATOM_COUNT>
0

> <PUBCHEM_COMPONENT_COUNT>
1

> <PUBCHEM_CACTVS_TAUTO_COUNT>
2

> <PUBCHEM_CONFORMER_ID>
0007FC7600000001

> <PUBCHEM_MMFF94_ENERGY>
44.8863

> <PUBCHEM_FEATURE_SELFOVERLAP>
10.148

> <PUBCHEM_SHAPE_FINGERPRINT>
10675989 125 15672095854174708206
10906281 52 17604167972702040165
11578080 2 18195255407661638661
12107698 1 17676482857293755580
12160290 23 17983834943138047954
12422481 6 18335420209340510783
12788726 201 16950274096521522984
13583140 156 17632011944833831321
14787075 74 17560519632889731338
14840074 17 18335703909194787452
14863182 85 17985574322914061191
19319366 153 17346594175502962734
20600515 1 18189346821405674139
21033648 29 18267280124648335536
21285901 2 18338224965620832271
2260408 40 18123787281395931563
229495 10 18128803167262814005
23402539 116 17676481778729132217
23557571 272 18040996189726883445
25222932 49 17059773451290339983
392239 28 17703516591971042898
469060 322 18193820746871765023
59755656 215 18272094872796154078
59755656 520 17845928637173159614
6913067 236 18335975445522105642
7399639 24 18335976497979003900
81228 2 17242187751227825285

> <PUBCHEM_SHAPE_MULTIPOLES>
613.86
10.58
4.22
3.04
3.89
1.08
0.02
-0.79
-3.7
0.65
3.64
-1.07
-0.77
2.75

> <PUBCHEM_SHAPE_SELFOVERLAP>
1129.838

> <PUBCHEM_SHAPE_VOLUME>
391.8

> <PUBCHEM_COORDINATE_TYPE>
2
5
10

$$$$
