15011611
  -OEChem-09122011453D

 54 56  0     1  0  0  0  0  0999 V2000
    5.0501    0.7832    1.2906 O   0  0  0  0  0  0  0  0  0  0  0  0
   -0.6366    2.8461   -0.5215 O   0  0  0  0  0  0  0  0  0  0  0  0
   -2.8936   -2.0732    0.4415 O   0  0  0  0  0  0  0  0  0  0  0  0
    1.9603   -0.7105    0.1461 C   0  0  2  0  0  0  0  0  0  0  0  0
    1.2442    0.5395   -0.4906 C   0  0  2  0  0  0  0  0  0  0  0  0
    3.5282   -0.7230    0.1407 C   0  0  0  0  0  0  0  0  0  0  0  0
    1.8719    1.8029    0.1569 C   0  0  0  0  0  0  0  0  0  0  0  0
    1.3245   -2.0026   -0.3942 C   0  0  0  0  0  0  0  0  0  0  0  0
   -0.2752    0.4447   -0.2081 C   0  0  0  0  0  0  0  0  0  0  0  0
    3.3830    1.8757    0.0018 C   0  0  0  0  0  0  0  0  0  0  0  0
    4.0540    0.6538    0.5755 C   0  0  0  0  0  0  0  0  0  0  0  0
   -0.1324   -2.1016    0.0468 C   0  0  0  0  0  0  0  0  0  0  0  0
    1.3577    0.6427   -2.0304 C   0  0  0  0  0  0  0  0  0  0  0  0
   -0.8994   -0.8053   -0.0034 C   0  0  0  0  0  0  0  0  0  0  0  0
    4.0296   -1.7604    1.1800 C   0  0  0  0  0  0  0  0  0  0  0  0
    4.1765   -1.0825   -1.2040 C   0  0  0  0  0  0  0  0  0  0  0  0
   -1.0897    1.5954   -0.2213 C   0  0  0  0  0  0  0  0  0  0  0  0
   -2.2880   -0.8680    0.2161 C   0  0  0  0  0  0  0  0  0  0  0  0
   -3.0668    0.2851    0.2142 C   0  0  0  0  0  0  0  0  0  0  0  0
   -2.4674    1.5170   -0.0079 C   0  0  0  0  0  0  0  0  0  0  0  0
   -4.5408    0.2188    0.4412 C   0  0  0  0  0  0  0  0  0  0  0  0
   -5.3453    0.7163   -0.7741 C   0  0  0  0  0  0  0  0  0  0  0  0
   -4.9757    0.9831    1.7054 C   0  0  0  0  0  0  0  0  0  0  0  0
   -3.3693   -2.7773   -0.7011 C   0  0  0  0  0  0  0  0  0  0  0  0
    1.6965   -0.6711    1.2177 H   0  0  0  0  0  0  0  0  0  0  0  0
    1.6172    1.8342    1.2251 H   0  0  0  0  0  0  0  0  0  0  0  0
    1.5169    2.7350   -0.2820 H   0  0  0  0  0  0  0  0  0  0  0  0
    1.8428   -2.8967   -0.0351 H   0  0  0  0  0  0  0  0  0  0  0  0
    1.3866   -2.0411   -1.4869 H   0  0  0  0  0  0  0  0  0  0  0  0
    3.7547    2.7563    0.5391 H   0  0  0  0  0  0  0  0  0  0  0  0
    3.6854    1.9856   -1.0437 H   0  0  0  0  0  0  0  0  0  0  0  0
   -0.1568   -2.4632    1.0833 H   0  0  0  0  0  0  0  0  0  0  0  0
   -0.6129   -2.8625   -0.5773 H   0  0  0  0  0  0  0  0  0  0  0  0
    0.8945   -0.2106   -2.5371 H   0  0  0  0  0  0  0  0  0  0  0  0
    0.8618    1.5324   -2.4293 H   0  0  0  0  0  0  0  0  0  0  0  0
    2.3873    0.7069   -2.3769 H   0  0  0  0  0  0  0  0  0  0  0  0
    3.7578   -2.7840    0.9066 H   0  0  0  0  0  0  0  0  0  0  0  0
    5.1224   -1.7407    1.2732 H   0  0  0  0  0  0  0  0  0  0  0  0
    3.6212   -1.5531    2.1760 H   0  0  0  0  0  0  0  0  0  0  0  0
    3.7771   -2.0140   -1.6163 H   0  0  0  0  0  0  0  0  0  0  0  0
    4.0700   -0.2985   -1.9538 H   0  0  0  0  0  0  0  0  0  0  0  0
    5.2585   -1.2221   -1.0840 H   0  0  0  0  0  0  0  0  0  0  0  0
   -3.0602    2.4282   -0.0335 H   0  0  0  0  0  0  0  0  0  0  0  0
   -4.8601   -0.8144    0.6127 H   0  0  0  0  0  0  0  0  0  0  0  0
   -0.2253    2.8107   -1.4000 H   0  0  0  0  0  0  0  0  0  0  0  0
   -5.1834    1.7823   -0.9665 H   0  0  0  0  0  0  0  0  0  0  0  0
   -6.4183    0.5682   -0.6104 H   0  0  0  0  0  0  0  0  0  0  0  0
   -5.0644    0.1649   -1.6784 H   0  0  0  0  0  0  0  0  0  0  0  0
   -4.4293    0.6235    2.5845 H   0  0  0  0  0  0  0  0  0  0  0  0
   -6.0454    0.8389    1.8926 H   0  0  0  0  0  0  0  0  0  0  0  0
   -4.7968    2.0600    1.6163 H   0  0  0  0  0  0  0  0  0  0  0  0
   -3.3402   -3.8479   -0.4799 H   0  0  0  0  0  0  0  0  0  0  0  0
   -2.7573   -2.5879   -1.5895 H   0  0  0  0  0  0  0  0  0  0  0  0
   -4.4054   -2.4963   -0.9097 H   0  0  0  0  0  0  0  0  0  0  0  0
  1 11  2  0  0  0  0
  2 17  1  0  0  0  0
  2 45  1  0  0  0  0
  3 18  1  0  0  0  0
  3 24  1  0  0  0  0
  4  5  1  0  0  0  0
  4  6  1  0  0  0  0
  4  8  1  0  0  0  0
  4 25  1  0  0  0  0
  5  7  1  0  0  0  0
  5  9  1  0  0  0  0
  5 13  1  0  0  0  0
  6 11  1  0  0  0  0
  6 15  1  0  0  0  0
  6 16  1  0  0  0  0
  7 10  1  0  0  0  0
  7 26  1  0  0  0  0
  7 27  1  0  0  0  0
  8 12  1  0  0  0  0
  8 28  1  0  0  0  0
  8 29  1  0  0  0  0
  9 14  1  0  0  0  0
  9 17  2  0  0  0  0
 10 11  1  0  0  0  0
 10 30  1  0  0  0  0
 10 31  1  0  0  0  0
 12 14  1  0  0  0  0
 12 32  1  0  0  0  0
 12 33  1  0  0  0  0
 13 34  1  0  0  0  0
 13 35  1  0  0  0  0
 13 36  1  0  0  0  0
 14 18  2  0  0  0  0
 15 37  1  0  0  0  0
 15 38  1  0  0  0  0
 15 39  1  0  0  0  0
 16 40  1  0  0  0  0
 16 41  1  0  0  0  0
 16 42  1  0  0  0  0
 17 20  1  0  0  0  0
 18 19  1  0  0  0  0
 19 20  2  0  0  0  0
 19 21  1  0  0  0  0
 20 43  1  0  0  0  0
 21 22  1  0  0  0  0
 21 23  1  0  0  0  0
 21 44  1  0  0  0  0
 22 46  1  0  0  0  0
 22 47  1  0  0  0  0
 22 48  1  0  0  0  0
 23 49  1  0  0  0  0
 23 50  1  0  0  0  0
 23 51  1  0  0  0  0
 24 52  1  0  0  0  0
 24 53  1  0  0  0  0
 24 54  1  0  0  0  0
M  END
> <PUBCHEM_COMPOUND_CID>
15011611

> <PUBCHEM_CONFORMER_RMSD>
0.6

> <PUBCHEM_CONFORMER_DIVERSEORDER>
2
1

> <PUBCHEM_MMFF94_PARTIAL_CHARGES>
18
1 -0.57
10 0.06
11 0.45
12 0.14
14 -0.14
17 0.08
18 0.08
19 -0.14
2 -0.53
20 -0.15
21 0.14
24 0.28
3 -0.36
43 0.15
45 0.45
5 0.14
6 0.06
9 -0.14

> <PUBCHEM_EFFECTIVE_ROTOR_COUNT>
3

> <PUBCHEM_PHARMACOPHORE_FEATURES>
8
1 1 acceptor
1 2 donor
1 3 acceptor
3 21 22 23 hydrophobe
3 6 15 16 hydrophobe
6 4 5 6 7 10 11 rings
6 4 5 8 9 12 14 rings
6 9 14 17 18 19 20 rings

> <PUBCHEM_HEAVY_ATOM_COUNT>
24

> <PUBCHEM_ATOM_DEF_STEREO_COUNT>
2

> <PUBCHEM_ATOM_UDEF_STEREO_COUNT>
0

> <PUBCHEM_BOND_DEF_STEREO_COUNT>
0

> <PUBCHEM_BOND_UDEF_STEREO_COUNT>
0

> <PUBCHEM_ISOTOPIC_ATOM_COUNT>
0

> <PUBCHEM_COMPONENT_COUNT>
1

> <PUBCHEM_CACTVS_TAUTO_COUNT>
18

> <PUBCHEM_CONFORMER_ID>
00E50F1B00000002

> <PUBCHEM_MMFF94_ENERGY>
103.8487

> <PUBCHEM_FEATURE_SELFOVERLAP>
40.632

> <PUBCHEM_SHAPE_FINGERPRINT>
10062212 137 18336263535181488499
10863032 1 18271527597224551024
10967382 1 18410013208456769423
11132069 177 18409729568837634041
12011746 2 18409733928730625718
12403259 415 18337674109483368172
12422481 6 18044390322588761649
12553582 1 18335425633900016735
12633257 1 18341331102321045394
12788726 201 18262246495252947248
13140716 1 18409453604520528099
13224815 77 18413107281416859055
13583140 156 15410606012711131094
13675066 3 17894635863742905929
13862211 1 18336542729535579883
14178342 30 18341058514127431739
14223421 5 18266739074094047052
14341114 176 18410858733405061488
14790565 3 17686346769011505708
15196674 1 18410855503114959418
15209294 21 17988092076035320441
15536298 74 18342178873241619246
15788980 27 17821728347221955825
16945 1 18337950065548045918
17349148 13 18411133615538309973
17492 89 18411701031973947766
17804303 29 18336550400273083812
17980427 23 18261955279126671572
1813 80 17167863058533710572
19141452 34 18412827997416658243
19591789 44 17977669705982854638
200 152 18060411422454231093
20028762 73 18201429264394481575
20261772 1 18409174294175582107
20600515 1 18271537458881666237
20691752 17 17748821960103513234
20715895 44 18189607255701611757
21033648 29 18189318135430205061
21267235 1 18336557027033321907
21421861 104 18115020793124378250
22182313 1 18044379318876774437
23184049 59 18408042905115769233
23227448 37 18413384350136932327
2334 1 18265337389773220151
23402539 116 18341039821838948390
23557571 272 18058743518622293383
23559900 14 18272381866836917318
2748010 2 18337958994579241599
296302 2 16773801393905137505
335352 9 18410575041734765262
34797466 226 15841553024144746729
34934 24 18408597050882320275
350125 39 18336271137168101036
3680242 22 18336829688800243899
5104073 3 18411699919471105386
58807428 26 18335701632804494546
59755656 215 18337675209073896574
69090 78 18413386527690554455
7064713 232 18273211989024865051
9709674 26 18342460292099074646
9981440 41 17108754687846286121

> <PUBCHEM_SHAPE_MULTIPOLES>
476.3
10.07
2.62
1.19
3.14
0.56
-0.1
-0.47
2.5
0.37
-0.19
-0.23
-0.09
-0.3

> <PUBCHEM_SHAPE_SELFOVERLAP>
1014.332

> <PUBCHEM_SHAPE_VOLUME>
265.4

> <PUBCHEM_COORDINATE_TYPE>
2
5
10

$$$$
