156286
  -OEChem-09122011433D

 50 53  0     1  0  0  0  0  0999 V2000
   -5.2322   -1.1368   -0.1979 O   0  0  0  0  0  0  0  0  0  0  0  0
    3.3464   -1.9374    0.2082 O   0  0  0  0  0  0  0  0  0  0  0  0
   -6.0043    1.0245   -0.3840 O   0  0  0  0  0  0  0  0  0  0  0  0
   -0.8668    0.6862    0.3476 C   0  0  2  0  0  0  0  0  0  0  0  0
   -1.5136   -0.6751   -0.1104 C   0  0  1  0  0  0  0  0  0  0  0  0
   -1.5268    1.8178   -0.5098 C   0  0  0  0  0  0  0  0  0  0  0  0
   -0.9353   -1.8392    0.6962 C   0  0  0  0  0  0  0  0  0  0  0  0
    0.6574    0.5889    0.1781 C   0  0  0  0  0  0  0  0  0  0  0  0
   -3.0104   -0.6042   -0.1265 C   0  0  0  0  0  0  0  0  0  0  0  0
   -3.0611    1.8907   -0.3618 C   0  0  0  0  0  0  0  0  0  0  0  0
    0.5636   -1.9672    0.4264 C   0  0  0  0  0  0  0  0  0  0  0  0
    1.3091   -0.6629    0.2642 C   0  0  0  0  0  0  0  0  0  0  0  0
   -1.1117    0.9958    1.8501 C   0  0  0  0  0  0  0  0  0  0  0  0
   -3.6693    0.5450   -0.2494 C   0  0  0  0  0  0  0  0  0  0  0  0
   -3.9376   -1.7486   -0.0958 C   0  0  0  0  0  0  0  0  0  0  0  0
    1.4481    1.7419    0.0140 C   0  0  0  0  0  0  0  0  0  0  0  0
    2.7096   -0.7291    0.1497 C   0  0  0  0  0  0  0  0  0  0  0  0
   -5.0938    0.2206   -0.2863 C   0  0  0  0  0  0  0  0  0  0  0  0
    3.4686    0.4240   -0.0284 C   0  0  0  0  0  0  0  0  0  0  0  0
    2.8377    1.6594   -0.0935 C   0  0  0  0  0  0  0  0  0  0  0  0
    4.9551    0.3561   -0.1475 C   0  0  0  0  0  0  0  0  0  0  0  0
    5.6704    1.1069    0.9909 C   0  0  0  0  0  0  0  0  0  0  0  0
    5.4595    0.8672   -1.5097 C   0  0  0  0  0  0  0  0  0  0  0  0
    3.5374   -2.6243   -1.0245 C   0  0  0  0  0  0  0  0  0  0  0  0
   -1.2284   -0.8514   -1.1607 H   0  0  0  0  0  0  0  0  0  0  0  0
   -1.2796    1.6537   -1.5682 H   0  0  0  0  0  0  0  0  0  0  0  0
   -1.1261    2.8053   -0.2542 H   0  0  0  0  0  0  0  0  0  0  0  0
   -1.4164   -2.7879    0.4283 H   0  0  0  0  0  0  0  0  0  0  0  0
   -1.1180   -1.7038    1.7682 H   0  0  0  0  0  0  0  0  0  0  0  0
   -3.4783    2.4286   -1.2206 H   0  0  0  0  0  0  0  0  0  0  0  0
   -3.3140    2.4717    0.5331 H   0  0  0  0  0  0  0  0  0  0  0  0
    0.6809   -2.5340   -0.5057 H   0  0  0  0  0  0  0  0  0  0  0  0
    1.0099   -2.5596    1.2343 H   0  0  0  0  0  0  0  0  0  0  0  0
   -0.7794    2.0120    2.0968 H   0  0  0  0  0  0  0  0  0  0  0  0
   -2.1671    0.9231    2.1293 H   0  0  0  0  0  0  0  0  0  0  0  0
   -0.5550    0.3204    2.5096 H   0  0  0  0  0  0  0  0  0  0  0  0
   -3.7957   -2.4245   -0.9438 H   0  0  0  0  0  0  0  0  0  0  0  0
   -3.8867   -2.3060    0.8436 H   0  0  0  0  0  0  0  0  0  0  0  0
    0.9994    2.7300   -0.0185 H   0  0  0  0  0  0  0  0  0  0  0  0
    3.4036    2.5780   -0.2221 H   0  0  0  0  0  0  0  0  0  0  0  0
    5.3000   -0.6812   -0.0712 H   0  0  0  0  0  0  0  0  0  0  0  0
    5.4791    2.1848    0.9564 H   0  0  0  0  0  0  0  0  0  0  0  0
    6.7541    0.9603    0.9260 H   0  0  0  0  0  0  0  0  0  0  0  0
    5.3396    0.7380    1.9682 H   0  0  0  0  0  0  0  0  0  0  0  0
    4.9779    0.3254   -2.3313 H   0  0  0  0  0  0  0  0  0  0  0  0
    6.5413    0.7189   -1.5986 H   0  0  0  0  0  0  0  0  0  0  0  0
    5.2584    1.9349   -1.6481 H   0  0  0  0  0  0  0  0  0  0  0  0
    3.4712   -1.9571   -1.8909 H   0  0  0  0  0  0  0  0  0  0  0  0
    2.7922   -3.4190   -1.1176 H   0  0  0  0  0  0  0  0  0  0  0  0
    4.5303   -3.0827   -1.0123 H   0  0  0  0  0  0  0  0  0  0  0  0
  1 15  1  0  0  0  0
  1 18  1  0  0  0  0
  2 17  1  0  0  0  0
  2 24  1  0  0  0  0
  3 18  2  0  0  0  0
  4  5  1  0  0  0  0
  4  6  1  0  0  0  0
  4  8  1  0  0  0  0
  4 13  1  0  0  0  0
  5  7  1  0  0  0  0
  5  9  1  0  0  0  0
  5 25  1  0  0  0  0
  6 10  1  0  0  0  0
  6 26  1  0  0  0  0
  6 27  1  0  0  0  0
  7 11  1  0  0  0  0
  7 28  1  0  0  0  0
  7 29  1  0  0  0  0
  8 12  2  0  0  0  0
  8 16  1  0  0  0  0
  9 14  2  0  0  0  0
  9 15  1  0  0  0  0
 10 14  1  0  0  0  0
 10 30  1  0  0  0  0
 10 31  1  0  0  0  0
 11 12  1  0  0  0  0
 11 32  1  0  0  0  0
 11 33  1  0  0  0  0
 12 17  1  0  0  0  0
 13 34  1  0  0  0  0
 13 35  1  0  0  0  0
 13 36  1  0  0  0  0
 14 18  1  0  0  0  0
 15 37  1  0  0  0  0
 15 38  1  0  0  0  0
 16 20  2  0  0  0  0
 16 39  1  0  0  0  0
 17 19  2  0  0  0  0
 19 20  1  0  0  0  0
 19 21  1  0  0  0  0
 20 40  1  0  0  0  0
 21 22  1  0  0  0  0
 21 23  1  0  0  0  0
 21 41  1  0  0  0  0
 22 42  1  0  0  0  0
 22 43  1  0  0  0  0
 22 44  1  0  0  0  0
 23 45  1  0  0  0  0
 23 46  1  0  0  0  0
 23 47  1  0  0  0  0
 24 48  1  0  0  0  0
 24 49  1  0  0  0  0
 24 50  1  0  0  0  0
M  END
> <PUBCHEM_COMPOUND_CID>
156286

> <PUBCHEM_CONFORMER_RMSD>
0.6

> <PUBCHEM_CONFORMER_DIVERSEORDER>
1

> <PUBCHEM_MMFF94_PARTIAL_CHARGES>
21
1 -0.43
10 0.14
11 0.14
12 -0.14
14 -0.12
15 0.42
16 -0.15
17 0.08
18 0.71
19 -0.14
2 -0.36
20 -0.15
21 0.14
24 0.28
3 -0.57
39 0.15
4 0.14
40 0.15
5 0.14
8 -0.14
9 -0.28

> <PUBCHEM_EFFECTIVE_ROTOR_COUNT>
3.2

> <PUBCHEM_PHARMACOPHORE_FEATURES>
7
1 2 acceptor
1 3 acceptor
3 21 22 23 hydrophobe
5 1 9 14 15 18 rings
6 4 5 6 9 10 14 rings
6 4 5 7 8 11 12 rings
6 8 12 16 17 19 20 rings

> <PUBCHEM_HEAVY_ATOM_COUNT>
24

> <PUBCHEM_ATOM_DEF_STEREO_COUNT>
2

> <PUBCHEM_ATOM_UDEF_STEREO_COUNT>
0

> <PUBCHEM_BOND_DEF_STEREO_COUNT>
0

> <PUBCHEM_BOND_UDEF_STEREO_COUNT>
0

> <PUBCHEM_ISOTOPIC_ATOM_COUNT>
0

> <PUBCHEM_COMPONENT_COUNT>
1

> <PUBCHEM_CACTVS_TAUTO_COUNT>
1

> <PUBCHEM_CONFORMER_ID>
0002627E00000001

> <PUBCHEM_MMFF94_ENERGY>
74.0404

> <PUBCHEM_FEATURE_SELFOVERLAP>
35.626

> <PUBCHEM_SHAPE_FINGERPRINT>
10906281 52 18189068610825452976
11315181 36 18130795594260274704
11578080 2 16807272615483266583
11963148 33 18264483056571048346
12011746 2 18411707595152305380
12107183 9 17764311639249689049
12236239 1 17917712400553704489
12788726 201 17203335463929652089
128620 24 18343017791955118920
13140716 1 17977662331897956450
13533116 47 17988924423253469986
14341114 176 18410860928069948591
14790565 3 18337113358827547745
15196674 1 18409728422181696711
15238133 3 13840261451290659830
15536298 74 18412542085206091314
17349148 13 18408599284323193776
17492 89 18341613663872455310
18222031 100 15195277625567755089
18681886 176 18340204211110479832
200 152 18060420235146932161
20645477 70 18341613655746283230
20691752 17 17458918011537914912
21033650 10 17387142957618408324
21267235 1 18337114579109663887
21279426 13 18337670785658170487
21285901 2 18114462262824134332
221357 26 18413106130587267357
221490 88 18409453582924476091
22393880 68 18189896405283415022
23402539 116 18335413608186851261
23559900 14 18341607182919507256
23566358 2 18339075995366620558
23569914 152 16766210129140605917
239999 70 17988929994263870700
3004659 81 18334295319521459942
335352 9 18408038541502953836
34797466 226 17346600807064427344
34934 24 18412257372335872370
350125 39 18408321098785516709
3545911 37 18411419509941441972
4072396 5 18336535085026419962
474 4 17385448747280074172
5104073 3 18338234860360267393
542803 24 17168142360019533828
59755656 215 18411420609595475318
59755656 520 16225761939195706571
9709674 26 18409172125138274962

> <PUBCHEM_SHAPE_MULTIPOLES>
476.3
12.05
2.35
1.01
0.48
0.88
0.14
-1.53
-2.47
-0.57
-0.19
-0.64
-0.14
0.42

> <PUBCHEM_SHAPE_SELFOVERLAP>
1039.201

> <PUBCHEM_SHAPE_VOLUME>
260.1

> <PUBCHEM_COORDINATE_TYPE>
2
5
10

$$$$
