134697
  -OEChem-09122009593D

 85 89  0     1  0  0  0  0  0999 V2000
   -7.4907   -1.7515    0.9991 O   0  0  0  0  0  0  0  0  0  0  0  0
    4.4545    2.2289    1.4904 O   0  0  0  0  0  0  0  0  0  0  0  0
    7.0004   -1.5761    0.2494 O   0  0  0  0  0  0  0  0  0  0  0  0
    5.2622   -2.6792   -0.7988 O   0  0  0  0  0  0  0  0  0  0  0  0
   -1.4791    0.9955   -0.4870 C   0  0  2  0  0  0  0  0  0  0  0  0
   -1.9590   -0.4642   -0.1393 C   0  0  1  0  0  0  0  0  0  0  0  0
   -3.4920   -0.8207   -0.4143 C   0  0  2  0  0  0  0  0  0  0  0  0
   -0.0193    1.2448    0.2150 C   0  0  1  0  0  0  0  0  0  0  0  0
   -4.3616    0.3114    0.2464 C   0  0  1  0  0  0  0  0  0  0  0  0
   -2.5259    2.0271    0.0173 C   0  0  0  0  0  0  0  0  0  0  0  0
    0.9446    0.0540   -0.0268 C   0  0  0  0  0  0  0  0  0  0  0  0
   -3.9783    1.6909   -0.3276 C   0  0  0  0  0  0  0  0  0  0  0  0
    2.4365    0.2900    0.3019 C   0  0  2  0  0  0  0  0  0  0  0  0
   -5.9088    0.0365    0.3500 C   0  0  0  0  0  0  0  0  0  0  0  0
    2.9892    1.5837   -0.3688 C   0  0  1  0  0  0  0  0  0  0  0  0
    0.6162    2.5662   -0.3249 C   0  0  0  0  0  0  0  0  0  0  0  0
   -0.9542   -1.4974   -0.6865 C   0  0  0  0  0  0  0  0  0  0  0  0
   -3.8228   -2.1617    0.3093 C   0  0  0  0  0  0  0  0  0  0  0  0
    2.0843    2.7733    0.0503 C   0  0  0  0  0  0  0  0  0  0  0  0
   -1.3590    1.1783   -2.0301 C   0  0  0  0  0  0  0  0  0  0  0  0
    0.4813   -1.1393   -0.4468 C   0  0  0  0  0  0  0  0  0  0  0  0
   -6.1203   -1.3526    1.0256 C   0  0  2  0  0  0  0  0  0  0  0  0
   -3.7988   -1.0228   -1.9195 C   0  0  0  0  0  0  0  0  0  0  0  0
   -0.1504    1.3994    1.7623 C   0  0  0  0  0  0  0  0  0  0  0  0
   -5.3138   -2.4794    0.3890 C   0  0  0  0  0  0  0  0  0  0  0  0
    3.3829   -0.9131    0.0514 C   0  0  0  0  0  0  0  0  0  0  0  0
    4.4463    1.8581    0.1112 C   0  0  2  0  0  0  0  0  0  0  0  0
    4.8464   -0.6665    0.4763 C   0  0  1  0  0  0  0  0  0  0  0  0
    5.3865    0.6625   -0.0856 C   0  0  0  0  0  0  0  0  0  0  0  0
   -6.5615    1.1063    1.2716 C   0  0  0  0  0  0  0  0  0  0  0  0
   -6.6530    0.1294   -0.9968 C   0  0  0  0  0  0  0  0  0  0  0  0
    2.9963    1.4627   -1.9156 C   0  0  0  0  0  0  0  0  0  0  0  0
    4.9981   -0.7541    2.0034 C   0  0  0  0  0  0  0  0  0  0  0  0
    5.6991   -1.7671   -0.1100 C   0  0  0  0  0  0  0  0  0  0  0  0
    7.9236   -2.5534   -0.2411 C   0  0  0  0  0  0  0  0  0  0  0  0
   -1.8774   -0.5431    0.9535 H   0  0  0  0  0  0  0  0  0  0  0  0
   -4.0348    0.3401    1.3000 H   0  0  0  0  0  0  0  0  0  0  0  0
   -2.2927    3.0276   -0.3665 H   0  0  0  0  0  0  0  0  0  0  0  0
   -2.4919    2.1083    1.1073 H   0  0  0  0  0  0  0  0  0  0  0  0
   -4.5979    2.4786    0.1116 H   0  0  0  0  0  0  0  0  0  0  0  0
   -4.1404    1.7504   -1.4068 H   0  0  0  0  0  0  0  0  0  0  0  0
    2.4441    0.4299    1.3875 H   0  0  0  0  0  0  0  0  0  0  0  0
    0.0418    3.4290    0.0357 H   0  0  0  0  0  0  0  0  0  0  0  0
    0.5678    2.6190   -1.4143 H   0  0  0  0  0  0  0  0  0  0  0  0
   -1.0680   -1.6524   -1.7624 H   0  0  0  0  0  0  0  0  0  0  0  0
   -1.1331   -2.4665   -0.2075 H   0  0  0  0  0  0  0  0  0  0  0  0
   -3.4296   -2.1338    1.3342 H   0  0  0  0  0  0  0  0  0  0  0  0
   -3.3209   -2.9987   -0.1910 H   0  0  0  0  0  0  0  0  0  0  0  0
    2.4428    3.6951   -0.4264 H   0  0  0  0  0  0  0  0  0  0  0  0
    2.1432    2.9546    1.1293 H   0  0  0  0  0  0  0  0  0  0  0  0
   -0.5074    0.6360   -2.4510 H   0  0  0  0  0  0  0  0  0  0  0  0
   -2.2428    0.8493   -2.5699 H   0  0  0  0  0  0  0  0  0  0  0  0
   -1.2461    2.2332   -2.3029 H   0  0  0  0  0  0  0  0  0  0  0  0
    1.1641   -1.9642   -0.6240 H   0  0  0  0  0  0  0  0  0  0  0  0
   -5.8313   -1.2778    2.0824 H   0  0  0  0  0  0  0  0  0  0  0  0
   -2.9674   -1.4767   -2.4616 H   0  0  0  0  0  0  0  0  0  0  0  0
   -4.6356   -1.7029   -2.0913 H   0  0  0  0  0  0  0  0  0  0  0  0
   -4.0604   -0.0969   -2.4334 H   0  0  0  0  0  0  0  0  0  0  0  0
    0.8197    1.4599    2.2651 H   0  0  0  0  0  0  0  0  0  0  0  0
   -0.6693    2.3235    2.0361 H   0  0  0  0  0  0  0  0  0  0  0  0
   -0.6798    0.5626    2.2255 H   0  0  0  0  0  0  0  0  0  0  0  0
   -5.7230   -2.7324   -0.5950 H   0  0  0  0  0  0  0  0  0  0  0  0
   -5.4474   -3.3946    0.9813 H   0  0  0  0  0  0  0  0  0  0  0  0
    3.0109   -1.7928    0.5951 H   0  0  0  0  0  0  0  0  0  0  0  0
    3.3404   -1.1760   -1.0139 H   0  0  0  0  0  0  0  0  0  0  0  0
    4.8587    2.7164   -0.4327 H   0  0  0  0  0  0  0  0  0  0  0  0
    5.5987    0.5510   -1.1568 H   0  0  0  0  0  0  0  0  0  0  0  0
    6.3508    0.9004    0.3837 H   0  0  0  0  0  0  0  0  0  0  0  0
   -6.5819    2.0957    0.8042 H   0  0  0  0  0  0  0  0  0  0  0  0
   -7.6014    0.8479    1.5037 H   0  0  0  0  0  0  0  0  0  0  0  0
   -6.0259    1.1909    2.2238 H   0  0  0  0  0  0  0  0  0  0  0  0
   -6.4058    1.0521   -1.5314 H   0  0  0  0  0  0  0  0  0  0  0  0
   -6.4433   -0.7117   -1.6576 H   0  0  0  0  0  0  0  0  0  0  0  0
   -7.7394    0.1334   -0.8463 H   0  0  0  0  0  0  0  0  0  0  0  0
    3.6845    0.6919   -2.2731 H   0  0  0  0  0  0  0  0  0  0  0  0
    2.0130    1.2094   -2.3221 H   0  0  0  0  0  0  0  0  0  0  0  0
    3.3066    2.4088   -2.3743 H   0  0  0  0  0  0  0  0  0  0  0  0
    5.9811   -0.4020    2.3367 H   0  0  0  0  0  0  0  0  0  0  0  0
    4.2442   -0.1804    2.5452 H   0  0  0  0  0  0  0  0  0  0  0  0
    4.9006   -1.7926    2.3446 H   0  0  0  0  0  0  0  0  0  0  0  0
   -7.5664   -2.5844    1.4954 H   0  0  0  0  0  0  0  0  0  0  0  0
    3.8024    1.7113    1.9829 H   0  0  0  0  0  0  0  0  0  0  0  0
    8.9221   -2.2866    0.1152 H   0  0  0  0  0  0  0  0  0  0  0  0
    7.9293   -2.5531   -1.3352 H   0  0  0  0  0  0  0  0  0  0  0  0
    7.6660   -3.5444    0.1444 H   0  0  0  0  0  0  0  0  0  0  0  0
  1 22  1  0  0  0  0
  1 81  1  0  0  0  0
  2 27  1  0  0  0  0
  2 82  1  0  0  0  0
  3 34  1  0  0  0  0
  3 35  1  0  0  0  0
  4 34  2  0  0  0  0
  5  6  1  0  0  0  0
  5  8  1  0  0  0  0
  5 10  1  0  0  0  0
  5 20  1  0  0  0  0
  6  7  1  0  0  0  0
  6 17  1  0  0  0  0
  6 36  1  0  0  0  0
  7  9  1  0  0  0  0
  7 18  1  0  0  0  0
  7 23  1  0  0  0  0
  8 11  1  0  0  0  0
  8 16  1  0  0  0  0
  8 24  1  0  0  0  0
  9 12  1  0  0  0  0
  9 14  1  0  0  0  0
  9 37  1  0  0  0  0
 10 12  1  0  0  0  0
 10 38  1  0  0  0  0
 10 39  1  0  0  0  0
 11 13  1  0  0  0  0
 11 21  2  0  0  0  0
 12 40  1  0  0  0  0
 12 41  1  0  0  0  0
 13 15  1  0  0  0  0
 13 26  1  0  0  0  0
 13 42  1  0  0  0  0
 14 22  1  0  0  0  0
 14 30  1  0  0  0  0
 14 31  1  0  0  0  0
 15 19  1  0  0  0  0
 15 27  1  0  0  0  0
 15 32  1  0  0  0  0
 16 19  1  0  0  0  0
 16 43  1  0  0  0  0
 16 44  1  0  0  0  0
 17 21  1  0  0  0  0
 17 45  1  0  0  0  0
 17 46  1  0  0  0  0
 18 25  1  0  0  0  0
 18 47  1  0  0  0  0
 18 48  1  0  0  0  0
 19 49  1  0  0  0  0
 19 50  1  0  0  0  0
 20 51  1  0  0  0  0
 20 52  1  0  0  0  0
 20 53  1  0  0  0  0
 21 54  1  0  0  0  0
 22 25  1  0  0  0  0
 22 55  1  0  0  0  0
 23 56  1  0  0  0  0
 23 57  1  0  0  0  0
 23 58  1  0  0  0  0
 24 59  1  0  0  0  0
 24 60  1  0  0  0  0
 24 61  1  0  0  0  0
 25 62  1  0  0  0  0
 25 63  1  0  0  0  0
 26 28  1  0  0  0  0
 26 64  1  0  0  0  0
 26 65  1  0  0  0  0
 27 29  1  0  0  0  0
 27 66  1  0  0  0  0
 28 29  1  0  0  0  0
 28 33  1  0  0  0  0
 28 34  1  0  0  0  0
 29 67  1  0  0  0  0
 29 68  1  0  0  0  0
 30 69  1  0  0  0  0
 30 70  1  0  0  0  0
 30 71  1  0  0  0  0
 31 72  1  0  0  0  0
 31 73  1  0  0  0  0
 31 74  1  0  0  0  0
 32 75  1  0  0  0  0
 32 76  1  0  0  0  0
 32 77  1  0  0  0  0
 33 78  1  0  0  0  0
 33 79  1  0  0  0  0
 33 80  1  0  0  0  0
 35 83  1  0  0  0  0
 35 84  1  0  0  0  0
 35 85  1  0  0  0  0
M  END
> <PUBCHEM_COMPOUND_CID>
134697

> <PUBCHEM_CONFORMER_RMSD>
0.8

> <PUBCHEM_CONFORMER_DIVERSEORDER>
1
3
2
4

> <PUBCHEM_MMFF94_PARTIAL_CHARGES>
17
1 -0.68
11 -0.28
13 0.14
17 0.14
2 -0.68
21 -0.29
22 0.28
27 0.28
28 0.06
3 -0.43
34 0.66
35 0.28
4 -0.57
54 0.15
8 0.14
81 0.4
82 0.4

> <PUBCHEM_EFFECTIVE_ROTOR_COUNT>
4.6

> <PUBCHEM_PHARMACOPHORE_FEATURES>
11
1 1 acceptor
1 1 donor
1 2 acceptor
1 2 donor
1 4 acceptor
3 14 30 31 hydrophobe
6 13 15 26 27 28 29 rings
6 5 6 7 9 10 12 rings
6 5 6 8 11 17 21 rings
6 7 9 14 18 22 25 rings
6 8 11 13 15 16 19 rings

> <PUBCHEM_HEAVY_ATOM_COUNT>
35

> <PUBCHEM_ATOM_DEF_STEREO_COUNT>
9

> <PUBCHEM_ATOM_UDEF_STEREO_COUNT>
1

> <PUBCHEM_BOND_DEF_STEREO_COUNT>
0

> <PUBCHEM_BOND_UDEF_STEREO_COUNT>
0

> <PUBCHEM_ISOTOPIC_ATOM_COUNT>
0

> <PUBCHEM_COMPONENT_COUNT>
1

> <PUBCHEM_CACTVS_TAUTO_COUNT>
1

> <PUBCHEM_CONFORMER_ID>
00020E2900000001

> <PUBCHEM_MMFF94_ENERGY>
158.4227

> <PUBCHEM_FEATURE_SELFOVERLAP>
55.875

> <PUBCHEM_SHAPE_FINGERPRINT>
10076449 9 18261118435699780014
10554248 39 18262509403217627533
11135609 12 18342177743960808006
11135609 99 18413389831011236606
11456790 92 17988373620026374857
117089 54 17680160856748952659
11756154 67 18337677408719436278
12107183 9 18340778031415059681
12166972 35 18187087256538959796
12236239 1 18341614832371974497
12422481 6 18272652350638909007
12788726 201 17631748134962826144
13533116 47 18272651255849581160
1361 4 18263647427685660362
13673619 4 18113056030000902732
13685833 64 18409729535232328138
13690498 29 17895192156333456188
13782708 43 17386000702417995731
13811026 1 18410849975508042802
14068700 675 18187649060110587852
14341114 176 18408887364764472137
14420673 8 18408606946413195275
14955137 171 18343582936547339816
15064986 96 17631457760898222287
15131766 46 15192996234062365312
15183329 4 18411978083265166557
15352257 5 18334860540837471195
15361156 5 18187374267237878399
15927050 60 17765716115552660524
16110190 28 18342177786926311599
16120349 21 18340494365340038673
17349148 13 18202844357671128308
1813 80 17022896886801665997
18608769 82 18410292497997292058
1979834 28 17489317377505052206
21033648 29 13470417660130265883
21130935 74 18342177807995070507
21150785 3 12973894705742813482
21267235 1 18410295787910124518
21279426 13 18333725815120572759
21682296 61 18341054029606841062
21792934 111 18272642429059045329
22223350 30 17701526535927891587
23522609 53 18046096880219801085
23559900 14 18337385054437941169
23569917 315 18343302600502796143
23569943 247 17896032140051763547
249057 3 18261671468231505749
25269216 80 15502380024121426627
3004659 81 18259421918906206586
335352 9 18410854343890307039
3383291 50 18335136500987029827
350125 39 18409450292931827308
3504750 166 18131626816487429799
3680242 22 18341905107726177209
4073 2 17897168133152174482
4093350 32 16988569052463654828
4144715 1 18335430109794542291
46194498 28 17603583062981625396
465052 167 18412267242138777932
474113 269 18270389608140734031
5104073 3 18341609334513298769
54039377 194 18335428945404574590
59755656 215 18334854961712071814
6081469 158 18187078486864302055
6086070 43 17131536320287739033
9896288 288 17843409474881057305
999808 66 18113629984346442915

> <PUBCHEM_SHAPE_MULTIPOLES>
696.81
18.97
2.95
1.41
1.3
0.1
0.1
12.07
-3.51
2.06
0
-0.24
-0.23
0.55

> <PUBCHEM_SHAPE_SELFOVERLAP>
1476.053

> <PUBCHEM_SHAPE_VOLUME>
385.1

> <PUBCHEM_COORDINATE_TYPE>
2
5
10

$$$$
