133766
  -OEChem-09122011433D

 51 54  0     1  0  0  0  0  0999 V2000
   -5.2846   -1.1960   -0.1961 O   0  0  0  0  0  0  0  0  0  0  0  0
    0.9505    2.8810    0.0236 O   0  0  0  0  0  0  0  0  0  0  0  0
    3.2841   -2.0959    0.2100 O   0  0  0  0  0  0  0  0  0  0  0  0
   -6.0315    0.9739   -0.3858 O   0  0  0  0  0  0  0  0  0  0  0  0
   -0.8981    0.5773    0.3449 C   0  0  2  0  0  0  0  0  0  0  0  0
   -1.5609   -0.7775   -0.1096 C   0  0  1  0  0  0  0  0  0  0  0  0
   -1.5450    1.7144   -0.5152 C   0  0  0  0  0  0  0  0  0  0  0  0
   -0.9959   -1.9463    0.6995 C   0  0  0  0  0  0  0  0  0  0  0  0
    0.6248    0.4618    0.1752 C   0  0  0  0  0  0  0  0  0  0  0  0
   -3.0569   -0.6893   -0.1255 C   0  0  0  0  0  0  0  0  0  0  0  0
   -3.0784    1.8055   -0.3676 C   0  0  0  0  0  0  0  0  0  0  0  0
    0.5012   -2.0926    0.4288 C   0  0  0  0  0  0  0  0  0  0  0  0
    1.2618   -0.7973    0.2639 C   0  0  0  0  0  0  0  0  0  0  0  0
   -1.1425    0.8895    1.8477 C   0  0  0  0  0  0  0  0  0  0  0  0
   -3.7023    0.4672   -0.2513 C   0  0  0  0  0  0  0  0  0  0  0  0
   -3.9974   -1.8227   -0.0918 C   0  0  0  0  0  0  0  0  0  0  0  0
    1.4288    1.6051    0.0086 C   0  0  0  0  0  0  0  0  0  0  0  0
    2.6614   -0.8802    0.1492 C   0  0  0  0  0  0  0  0  0  0  0  0
   -5.1305    0.1594   -0.2871 C   0  0  0  0  0  0  0  0  0  0  0  0
    3.4337    0.2637   -0.0316 C   0  0  0  0  0  0  0  0  0  0  0  0
    2.8172    1.5062   -0.0992 C   0  0  0  0  0  0  0  0  0  0  0  0
    4.9196    0.1777   -0.1483 C   0  0  0  0  0  0  0  0  0  0  0  0
    5.6422    0.9216    0.9901 C   0  0  0  0  0  0  0  0  0  0  0  0
    5.4320    0.6806   -1.5105 C   0  0  0  0  0  0  0  0  0  0  0  0
    3.4667   -2.7871   -1.0215 C   0  0  0  0  0  0  0  0  0  0  0  0
   -1.2781   -0.9593   -1.1597 H   0  0  0  0  0  0  0  0  0  0  0  0
   -1.2939    1.5558   -1.5732 H   0  0  0  0  0  0  0  0  0  0  0  0
   -1.1848    2.7102   -0.2537 H   0  0  0  0  0  0  0  0  0  0  0  0
   -1.4882   -2.8899    0.4340 H   0  0  0  0  0  0  0  0  0  0  0  0
   -1.1762   -1.8066    1.7713 H   0  0  0  0  0  0  0  0  0  0  0  0
   -3.4896    2.3453   -1.2282 H   0  0  0  0  0  0  0  0  0  0  0  0
   -3.3265    2.3913    0.5256 H   0  0  0  0  0  0  0  0  0  0  0  0
    0.6111   -2.6622   -0.5025 H   0  0  0  0  0  0  0  0  0  0  0  0
    0.9411   -2.6888    1.2373 H   0  0  0  0  0  0  0  0  0  0  0  0
   -0.8063    1.9038    2.0956 H   0  0  0  0  0  0  0  0  0  0  0  0
   -2.1984    0.8220    2.1261 H   0  0  0  0  0  0  0  0  0  0  0  0
   -0.5895    0.2116    2.5077 H   0  0  0  0  0  0  0  0  0  0  0  0
   -3.8632   -2.5027   -0.9377 H   0  0  0  0  0  0  0  0  0  0  0  0
   -3.9533   -2.3779    0.8493 H   0  0  0  0  0  0  0  0  0  0  0  0
    3.4164    2.4054   -0.2216 H   0  0  0  0  0  0  0  0  0  0  0  0
    5.2519   -0.8635   -0.0701 H   0  0  0  0  0  0  0  0  0  0  0  0
    1.6743    3.5181   -0.0989 H   0  0  0  0  0  0  0  0  0  0  0  0
    5.4656    2.0019    0.9532 H   0  0  0  0  0  0  0  0  0  0  0  0
    6.7240    0.7604    0.9279 H   0  0  0  0  0  0  0  0  0  0  0  0
    5.3044    0.5591    1.9674 H   0  0  0  0  0  0  0  0  0  0  0  0
    4.9447    0.1438   -2.3320 H   0  0  0  0  0  0  0  0  0  0  0  0
    6.5119    0.5186   -1.5978 H   0  0  0  0  0  0  0  0  0  0  0  0
    5.2449    1.7506   -1.6508 H   0  0  0  0  0  0  0  0  0  0  0  0
    3.4108   -2.1202   -1.8889 H   0  0  0  0  0  0  0  0  0  0  0  0
    2.7107   -3.5715   -1.1144 H   0  0  0  0  0  0  0  0  0  0  0  0
    4.4532   -3.2593   -1.0076 H   0  0  0  0  0  0  0  0  0  0  0  0
  1 16  1  0  0  0  0
  1 19  1  0  0  0  0
  2 17  1  0  0  0  0
  2 42  1  0  0  0  0
  3 18  1  0  0  0  0
  3 25  1  0  0  0  0
  4 19  2  0  0  0  0
  5  6  1  0  0  0  0
  5  7  1  0  0  0  0
  5  9  1  0  0  0  0
  5 14  1  0  0  0  0
  6  8  1  0  0  0  0
  6 10  1  0  0  0  0
  6 26  1  0  0  0  0
  7 11  1  0  0  0  0
  7 27  1  0  0  0  0
  7 28  1  0  0  0  0
  8 12  1  0  0  0  0
  8 29  1  0  0  0  0
  8 30  1  0  0  0  0
  9 13  1  0  0  0  0
  9 17  2  0  0  0  0
 10 15  2  0  0  0  0
 10 16  1  0  0  0  0
 11 15  1  0  0  0  0
 11 31  1  0  0  0  0
 11 32  1  0  0  0  0
 12 13  1  0  0  0  0
 12 33  1  0  0  0  0
 12 34  1  0  0  0  0
 13 18  2  0  0  0  0
 14 35  1  0  0  0  0
 14 36  1  0  0  0  0
 14 37  1  0  0  0  0
 15 19  1  0  0  0  0
 16 38  1  0  0  0  0
 16 39  1  0  0  0  0
 17 21  1  0  0  0  0
 18 20  1  0  0  0  0
 20 21  2  0  0  0  0
 20 22  1  0  0  0  0
 21 40  1  0  0  0  0
 22 23  1  0  0  0  0
 22 24  1  0  0  0  0
 22 41  1  0  0  0  0
 23 43  1  0  0  0  0
 23 44  1  0  0  0  0
 23 45  1  0  0  0  0
 24 46  1  0  0  0  0
 24 47  1  0  0  0  0
 24 48  1  0  0  0  0
 25 49  1  0  0  0  0
 25 50  1  0  0  0  0
 25 51  1  0  0  0  0
M  END
> <PUBCHEM_COMPOUND_CID>
133766

> <PUBCHEM_CONFORMER_RMSD>
0.6

> <PUBCHEM_CONFORMER_DIVERSEORDER>
1

> <PUBCHEM_MMFF94_PARTIAL_CHARGES>
22
1 -0.43
10 -0.28
11 0.14
12 0.14
13 -0.14
15 -0.12
16 0.42
17 0.08
18 0.08
19 0.71
2 -0.53
20 -0.14
21 -0.15
22 0.14
25 0.28
3 -0.36
4 -0.57
40 0.15
42 0.45
5 0.14
6 0.14
9 -0.14

> <PUBCHEM_EFFECTIVE_ROTOR_COUNT>
3.2

> <PUBCHEM_PHARMACOPHORE_FEATURES>
8
1 2 donor
1 3 acceptor
1 4 acceptor
3 22 23 24 hydrophobe
5 1 10 15 16 19 rings
6 5 6 7 10 11 15 rings
6 5 6 8 9 12 13 rings
6 9 13 17 18 20 21 rings

> <PUBCHEM_HEAVY_ATOM_COUNT>
25

> <PUBCHEM_ATOM_DEF_STEREO_COUNT>
2

> <PUBCHEM_ATOM_UDEF_STEREO_COUNT>
0

> <PUBCHEM_BOND_DEF_STEREO_COUNT>
0

> <PUBCHEM_BOND_UDEF_STEREO_COUNT>
0

> <PUBCHEM_ISOTOPIC_ATOM_COUNT>
0

> <PUBCHEM_COMPONENT_COUNT>
1

> <PUBCHEM_CACTVS_TAUTO_COUNT>
9

> <PUBCHEM_CONFORMER_ID>
00020A8600000001

> <PUBCHEM_MMFF94_ENERGY>
81.1149

> <PUBCHEM_FEATURE_SELFOVERLAP>
40.702

> <PUBCHEM_SHAPE_FINGERPRINT>
10906281 52 18262533575457189744
10967382 1 18409165523651747554
11112241 14 16555912416154216896
11578080 2 16734932451341651279
11963148 33 18336258058998771458
12011746 2 18411706495572099302
12236239 1 17846499227182570273
12788726 201 18201725002756563441
12838862 33 18265030544414571140
13140716 1 17977380861089722986
13402501 40 18409164433009733088
13533116 47 17917148299860446594
13862211 1 18336540607621243258
14790565 3 18336832974693447945
15099037 51 18335420200740104340
15196674 1 18337670819516930423
15420108 30 16616469779536819185
15536298 74 18412542085237804803
1601671 61 18408882953764376972
16945 1 18265336285940186410
17349148 13 18408599284286244536
17492 89 18341613659540590735
18681886 176 18340766061430843696
19591789 44 18337106761604657379
200 152 18060420235183790457
20645477 70 18340487755813138254
20691752 17 17532102600688751016
21033650 10 17242463720019383652
21267235 1 18410581707529081583
21279426 13 18265049137870782223
21285901 2 18114743737758594988
221357 26 18411416190000385173
221490 88 18336551615743800731
22393880 68 18190176776390279054
23402539 116 18336538408592498677
23559900 14 18341607182771755744
23566358 2 18338511941553863166
23569914 152 16765927550362503501
3004659 81 18260267404967924478
335352 9 18408601491371894660
34797466 226 17203610415104558920
34934 24 18411694418129727266
350125 39 18335138708816126925
3545911 37 18411136939405121012
3680242 22 18187922829114038722
4072396 5 18336253610012831498
5104073 3 18338516331052599235
59755656 215 18410857655363047398
9709674 26 18409171029795091907

> <PUBCHEM_SHAPE_MULTIPOLES>
491.01
11.73
2.55
1
1.32
0.63
0.13
-0.56
-2.39
-0.7
-0.19
-0.61
-0.09
0.43

> <PUBCHEM_SHAPE_SELFOVERLAP>
1074.465

> <PUBCHEM_SHAPE_VOLUME>
266.5

> <PUBCHEM_COORDINATE_TYPE>
2
5
10

$$$$
