15459518
  -OEChem-09122009433D

 81 86  0     1  0  0  0  0  0999 V2000
   -5.6793    0.2337   -0.8241 O   0  0  0  0  0  0  0  0  0  0  0  0
   -6.8273   -1.1039    0.7535 O   0  0  0  0  0  0  0  0  0  0  0  0
   -5.2499   -3.0322   -0.2192 O   0  0  0  0  0  0  0  0  0  0  0  0
    3.9526   -3.2389    0.2624 O   0  0  0  0  0  0  0  0  0  0  0  0
    4.5062   -2.0468    2.1329 O   0  0  0  0  0  0  0  0  0  0  0  0
    0.8337    1.4188   -0.2351 C   0  0  1  0  0  0  0  0  0  0  0  0
    1.6937    0.0810   -0.3822 C   0  0  2  0  0  0  0  0  0  0  0  0
   -1.3842    0.0411   -0.8777 C   0  0  2  0  0  0  0  0  0  0  0  0
   -0.6759    1.0582    0.1002 C   0  0  2  0  0  0  0  0  0  0  0  0
   -2.6992   -0.4640   -0.1347 C   0  0  1  0  0  0  0  0  0  0  0  0
   -3.6616    0.6795    0.3819 C   0  0  2  0  0  0  0  0  0  0  0  0
    3.1856    0.4537   -0.7968 C   0  0  1  0  0  0  0  0  0  0  0  0
    3.8873    1.5742    0.0606 C   0  0  1  0  0  0  0  0  0  0  0  0
    1.0104   -0.8116   -1.4633 C   0  0  0  0  0  0  0  0  0  0  0  0
   -0.4486   -1.1720   -1.1375 C   0  0  0  0  0  0  0  0  0  0  0  0
   -1.6077    2.2580    0.3775 C   0  0  0  0  0  0  0  0  0  0  0  0
    1.4786    2.2308    0.9225 C   0  0  0  0  0  0  0  0  0  0  0  0
   -2.8823    1.8016    1.0842 C   0  0  0  0  0  0  0  0  0  0  0  0
    2.9257    2.6461    0.6538 C   0  0  0  0  0  0  0  0  0  0  0  0
   -4.7088    0.0180    1.3204 C   0  0  2  0  0  0  0  0  0  0  0  0
    4.1468   -0.7418   -1.0976 C   0  0  0  0  0  0  0  0  0  0  0  0
   -3.4537   -1.5909   -0.8845 C   0  0  0  0  0  0  0  0  0  0  0  0
    0.8800    2.3260   -1.5000 C   0  0  0  0  0  0  0  0  0  0  0  0
    1.7004   -0.7649    0.9217 C   0  0  0  0  0  0  0  0  0  0  0  0
   -1.7250    0.6410   -2.2674 C   0  0  0  0  0  0  0  0  0  0  0  0
   -4.6089    1.1947   -0.7147 C   0  0  0  0  0  0  0  0  0  0  0  0
   -5.5707   -0.6858    0.2709 C   0  0  2  0  0  0  0  0  0  0  0  0
    4.7266    0.9862    1.2228 C   0  0  0  0  0  0  0  0  0  0  0  0
    5.1490   -1.2023   -0.0158 C   0  0  2  0  0  0  0  0  0  0  0  0
    5.7550   -0.0500    0.7861 C   0  0  0  0  0  0  0  0  0  0  0  0
   -4.7977   -1.8890   -0.2517 C   0  0  0  0  0  0  0  0  0  0  0  0
    4.8709    2.3498   -0.8700 C   0  0  0  0  0  0  0  0  0  0  0  0
   -5.5211    0.9881    2.1919 C   0  0  0  0  0  0  0  0  0  0  0  0
    6.2896   -1.9928   -0.6912 C   0  0  0  0  0  0  0  0  0  0  0  0
    4.5096   -2.1937    0.9201 C   0  0  0  0  0  0  0  0  0  0  0  0
   -0.6248    0.5538    1.0737 H   0  0  0  0  0  0  0  0  0  0  0  0
   -2.3308   -0.9476    0.7859 H   0  0  0  0  0  0  0  0  0  0  0  0
    3.0489    0.8955   -1.7957 H   0  0  0  0  0  0  0  0  0  0  0  0
    1.5443   -1.7623   -1.5701 H   0  0  0  0  0  0  0  0  0  0  0  0
    1.0724   -0.3384   -2.4484 H   0  0  0  0  0  0  0  0  0  0  0  0
   -0.8400   -1.7752   -1.9676 H   0  0  0  0  0  0  0  0  0  0  0  0
   -0.4591   -1.8415   -0.2688 H   0  0  0  0  0  0  0  0  0  0  0  0
   -1.8626    2.8090   -0.5308 H   0  0  0  0  0  0  0  0  0  0  0  0
   -1.1257    2.9825    1.0395 H   0  0  0  0  0  0  0  0  0  0  0  0
    1.4259    1.6762    1.8658 H   0  0  0  0  0  0  0  0  0  0  0  0
    0.9209    3.1564    1.1021 H   0  0  0  0  0  0  0  0  0  0  0  0
   -2.5953    1.4553    2.0868 H   0  0  0  0  0  0  0  0  0  0  0  0
   -3.5214    2.6797    1.2393 H   0  0  0  0  0  0  0  0  0  0  0  0
    2.8944    3.5219   -0.0079 H   0  0  0  0  0  0  0  0  0  0  0  0
    3.3406    3.0491    1.5878 H   0  0  0  0  0  0  0  0  0  0  0  0
   -4.2407   -0.7031    2.0032 H   0  0  0  0  0  0  0  0  0  0  0  0
    3.5903   -1.5924   -1.4986 H   0  0  0  0  0  0  0  0  0  0  0  0
    4.7522   -0.4104   -1.9556 H   0  0  0  0  0  0  0  0  0  0  0  0
   -2.8622   -2.5128   -0.8694 H   0  0  0  0  0  0  0  0  0  0  0  0
   -3.6584   -1.3412   -1.9276 H   0  0  0  0  0  0  0  0  0  0  0  0
    1.8699    2.7397   -1.7021 H   0  0  0  0  0  0  0  0  0  0  0  0
    0.6128    1.8057   -2.4150 H   0  0  0  0  0  0  0  0  0  0  0  0
    0.2142    3.1885   -1.3961 H   0  0  0  0  0  0  0  0  0  0  0  0
    2.3261   -0.3447    1.7043 H   0  0  0  0  0  0  0  0  0  0  0  0
    0.7123   -0.8833    1.3703 H   0  0  0  0  0  0  0  0  0  0  0  0
    2.0306   -1.7838    0.7227 H   0  0  0  0  0  0  0  0  0  0  0  0
   -0.8763    0.6208   -2.9532 H   0  0  0  0  0  0  0  0  0  0  0  0
   -2.4922    0.0663   -2.7908 H   0  0  0  0  0  0  0  0  0  0  0  0
   -2.0738    1.6729   -2.2237 H   0  0  0  0  0  0  0  0  0  0  0  0
   -5.0638    2.1557   -0.4506 H   0  0  0  0  0  0  0  0  0  0  0  0
   -4.1567    1.3146   -1.6972 H   0  0  0  0  0  0  0  0  0  0  0  0
    4.0834    0.5670    1.9992 H   0  0  0  0  0  0  0  0  0  0  0  0
    5.2734    1.7973    1.7242 H   0  0  0  0  0  0  0  0  0  0  0  0
    6.5287    0.4494    0.1898 H   0  0  0  0  0  0  0  0  0  0  0  0
    6.2864   -0.4177    1.6740 H   0  0  0  0  0  0  0  0  0  0  0  0
    5.5964    1.6946   -1.3600 H   0  0  0  0  0  0  0  0  0  0  0  0
    4.3300    2.8703   -1.6689 H   0  0  0  0  0  0  0  0  0  0  0  0
    5.4317    3.1059   -0.3079 H   0  0  0  0  0  0  0  0  0  0  0  0
   -6.0991    1.7036    1.5994 H   0  0  0  0  0  0  0  0  0  0  0  0
   -6.2194    0.4389    2.8328 H   0  0  0  0  0  0  0  0  0  0  0  0
   -4.8704    1.5527    2.8667 H   0  0  0  0  0  0  0  0  0  0  0  0
    6.9674   -2.4294    0.0523 H   0  0  0  0  0  0  0  0  0  0  0  0
    5.9112   -2.8140   -1.3113 H   0  0  0  0  0  0  0  0  0  0  0  0
    6.8865   -1.3442   -1.3429 H   0  0  0  0  0  0  0  0  0  0  0  0
   -7.2605   -0.3619    1.2031 H   0  0  0  0  0  0  0  0  0  0  0  0
    3.5376   -3.8801    0.8778 H   0  0  0  0  0  0  0  0  0  0  0  0
  1 26  1  0  0  0  0
  1 27  1  0  0  0  0
  2 27  1  0  0  0  0
  2 80  1  0  0  0  0
  3 31  2  0  0  0  0
  4 35  1  0  0  0  0
  4 81  1  0  0  0  0
  5 35  2  0  0  0  0
  6  7  1  0  0  0  0
  6  9  1  0  0  0  0
  6 17  1  0  0  0  0
  6 23  1  0  0  0  0
  7 12  1  0  0  0  0
  7 14  1  0  0  0  0
  7 24  1  0  0  0  0
  8  9  1  0  0  0  0
  8 10  1  0  0  0  0
  8 15  1  0  0  0  0
  8 25  1  0  0  0  0
  9 16  1  0  0  0  0
  9 36  1  0  0  0  0
 10 11  1  0  0  0  0
 10 22  1  0  0  0  0
 10 37  1  0  0  0  0
 11 18  1  0  0  0  0
 11 20  1  0  0  0  0
 11 26  1  0  0  0  0
 12 13  1  0  0  0  0
 12 21  1  0  0  0  0
 12 38  1  0  0  0  0
 13 19  1  0  0  0  0
 13 28  1  0  0  0  0
 13 32  1  0  0  0  0
 14 15  1  0  0  0  0
 14 39  1  0  0  0  0
 14 40  1  0  0  0  0
 15 41  1  0  0  0  0
 15 42  1  0  0  0  0
 16 18  1  0  0  0  0
 16 43  1  0  0  0  0
 16 44  1  0  0  0  0
 17 19  1  0  0  0  0
 17 45  1  0  0  0  0
 17 46  1  0  0  0  0
 18 47  1  0  0  0  0
 18 48  1  0  0  0  0
 19 49  1  0  0  0  0
 19 50  1  0  0  0  0
 20 27  1  0  0  0  0
 20 33  1  0  0  0  0
 20 51  1  0  0  0  0
 21 29  1  0  0  0  0
 21 52  1  0  0  0  0
 21 53  1  0  0  0  0
 22 31  1  0  0  0  0
 22 54  1  0  0  0  0
 22 55  1  0  0  0  0
 23 56  1  0  0  0  0
 23 57  1  0  0  0  0
 23 58  1  0  0  0  0
 24 59  1  0  0  0  0
 24 60  1  0  0  0  0
 24 61  1  0  0  0  0
 25 62  1  0  0  0  0
 25 63  1  0  0  0  0
 25 64  1  0  0  0  0
 26 65  1  0  0  0  0
 26 66  1  0  0  0  0
 27 31  1  0  0  0  0
 28 30  1  0  0  0  0
 28 67  1  0  0  0  0
 28 68  1  0  0  0  0
 29 30  1  0  0  0  0
 29 34  1  0  0  0  0
 29 35  1  0  0  0  0
 30 69  1  0  0  0  0
 30 70  1  0  0  0  0
 32 71  1  0  0  0  0
 32 72  1  0  0  0  0
 32 73  1  0  0  0  0
 33 74  1  0  0  0  0
 33 75  1  0  0  0  0
 33 76  1  0  0  0  0
 34 77  1  0  0  0  0
 34 78  1  0  0  0  0
 34 79  1  0  0  0  0
M  END
> <PUBCHEM_COMPOUND_CID>
15459518

> <PUBCHEM_CONFORMER_RMSD>
0.8

> <PUBCHEM_CONFORMER_DIVERSEORDER>
1
2

> <PUBCHEM_MMFF94_PARTIAL_CHARGES>
13
1 -0.56
2 -0.68
22 0.06
26 0.28
27 0.62
29 0.06
3 -0.57
31 0.45
35 0.66
4 -0.65
5 -0.57
80 0.4
81 0.5

> <PUBCHEM_EFFECTIVE_ROTOR_COUNT>
3.8

> <PUBCHEM_PHARMACOPHORE_FEATURES>
12
1 1 acceptor
1 2 acceptor
1 2 donor
1 3 acceptor
1 4 acceptor
1 5 acceptor
3 4 5 35 anion
6 12 13 21 28 29 30 rings
6 6 7 12 13 17 19 rings
6 6 7 8 9 14 15 rings
6 8 9 10 11 16 18 rings
8 1 10 11 20 22 26 27 31 rings

> <PUBCHEM_HEAVY_ATOM_COUNT>
35

> <PUBCHEM_ATOM_DEF_STEREO_COUNT>
11

> <PUBCHEM_ATOM_UDEF_STEREO_COUNT>
0

> <PUBCHEM_BOND_DEF_STEREO_COUNT>
0

> <PUBCHEM_BOND_UDEF_STEREO_COUNT>
0

> <PUBCHEM_ISOTOPIC_ATOM_COUNT>
0

> <PUBCHEM_COMPONENT_COUNT>
1

> <PUBCHEM_CACTVS_TAUTO_COUNT>
2

> <PUBCHEM_CONFORMER_ID>
00EBE4BE00000001

> <PUBCHEM_MMFF94_ENERGY>
178.6048

> <PUBCHEM_FEATURE_SELFOVERLAP>
61.057

> <PUBCHEM_SHAPE_FINGERPRINT>
10076449 9 18270410395876839726
10319926 262 17775010050512147745
11456790 92 18130799949815653329
12107183 9 18126294047268582441
12166972 35 18259708916778856765
12236239 1 18411422825429659493
12422481 6 17560802091466622404
12596602 18 18060701697502654474
12633257 1 18272941492380149641
12788726 201 17489601056064139024
13224815 77 18202291329298031893
13533116 47 18410856594300403376
13692114 37 17762610694920937333
13782708 43 17821443543266114162
13811026 1 18272649027136334821
14341114 176 18412828001194693381
14849402 71 18268988860244109584
14955137 171 17846218826343270560
15001296 14 18261387901046546306
15183329 4 18412266142300147903
15238133 3 16988851540134353809
15250474 111 18199740508817522839
15361156 5 17677060061441773069
15510800 12 17024044842389084011
15788980 27 18040434390898465805
15799311 1 18262248810155813038
15927050 60 17982447406845149798
16992610 120 18050851311614664704
17349148 13 18335430070728093805
17844677 252 18333734602212736517
17857418 61 18409445873341881882
1813 80 17894348874081363940
1979834 28 17131839754993962366
19841028 212 18335414729733329395
20028762 73 18343865511205074630
21033650 10 15936968514327931293
21267235 1 18343025459162735086
21421861 104 18410566289488006642
21703447 108 16838795944321531407
21792934 111 18273502265476339633
21859007 373 17974009453887434037
23522609 53 18124630610366519665
23559900 14 18339916121741766953
23569943 247 17969780782941770243
25269216 80 15936701388915739495
2838139 119 9367342626309245603
3004659 81 18334295353675203830
3411729 13 18129378379717623856
345986 75 18270389474526606456
34797466 226 15936417766059599460
350125 39 18343303673647682580
3633792 109 18337378376185380143
3680242 22 18272378537672805810
392239 28 18201448008111042243
4073 2 18190184679061330635
4144715 1 18200888308915393159
460360 51 18337382730612656124
46194498 28 17530684316963124876
465052 167 18341897368548310414
5104073 3 18131355223718355097
513202 73 18041561339178541029
5912855 24 18055909037939219606
6081469 158 18335132121221946959
6086070 43 18340188723189560749
7970288 3 18121778327629098146
86090 222 17313680256049679242

> <PUBCHEM_SHAPE_MULTIPOLES>
690.94
15.66
2.97
1.6
5.37
0.47
0.07
6.73
4.01
-1.97
0.26
0.22
-0.12
-1.08

> <PUBCHEM_SHAPE_SELFOVERLAP>
1495.497

> <PUBCHEM_SHAPE_VOLUME>
371.3

> <PUBCHEM_COORDINATE_TYPE>
2
5
10

$$$$
