101616678
  -OEChem-09122009463D

 79 83  0     1  0  0  0  0  0999 V2000
    5.0845    0.9747    1.6965 O   0  0  0  0  0  0  0  0  0  0  0  0
   -3.9190   -3.2305    0.0676 O   0  0  0  0  0  0  0  0  0  0  0  0
    6.4058   -1.7686   -1.4561 O   0  0  0  0  0  0  0  0  0  0  0  0
    5.0377   -3.1986    0.4316 O   0  0  0  0  0  0  0  0  0  0  0  0
   -4.4203   -2.2901   -1.9475 O   0  0  0  0  0  0  0  0  0  0  0  0
   -0.7869    1.4402    0.0869 C   0  0  1  0  0  0  0  0  0  0  0  0
   -1.6469    0.1233    0.3634 C   0  0  2  0  0  0  0  0  0  0  0  0
    0.7238    1.0474   -0.2018 C   0  0  2  0  0  0  0  0  0  0  0  0
    1.4286    0.1472    0.8892 C   0  0  1  0  0  0  0  0  0  0  0  0
   -3.1415    0.5332    0.7305 C   0  0  1  0  0  0  0  0  0  0  0  0
   -3.8388    1.5632   -0.2370 C   0  0  1  0  0  0  0  0  0  0  0  0
   -0.9685   -0.6538    1.5329 C   0  0  0  0  0  0  0  0  0  0  0  0
   -1.4264    2.1336   -1.1476 C   0  0  0  0  0  0  0  0  0  0  0  0
    0.4951   -1.0382    1.2572 C   0  0  0  0  0  0  0  0  0  0  0  0
    2.7596   -0.4000    0.2177 C   0  0  1  0  0  0  0  0  0  0  0  0
   -2.8743    2.5731   -0.9261 C   0  0  0  0  0  0  0  0  0  0  0  0
    1.6514    2.2067   -0.6223 C   0  0  0  0  0  0  0  0  0  0  0  0
   -4.1035   -0.6286    1.1411 C   0  0  0  0  0  0  0  0  0  0  0  0
    3.7378    0.7052   -0.2901 C   0  0  2  0  0  0  0  0  0  0  0  0
   -0.8382    2.4678    1.2557 C   0  0  0  0  0  0  0  0  0  0  0  0
   -1.6463   -0.8505   -0.8479 C   0  0  0  0  0  0  0  0  0  0  0  0
   -4.6698    0.8627   -1.3410 C   0  0  0  0  0  0  0  0  0  0  0  0
    2.9694    1.6847   -1.2080 C   0  0  0  0  0  0  0  0  0  0  0  0
   -5.1002   -1.1934    0.1042 C   0  0  2  0  0  0  0  0  0  0  0  0
    1.7645    0.8791    2.2143 C   0  0  0  0  0  0  0  0  0  0  0  0
   -5.7011   -0.1260   -0.8110 C   0  0  0  0  0  0  0  0  0  0  0  0
   -4.8287    2.4251    0.6071 C   0  0  0  0  0  0  0  0  0  0  0  0
    3.5069   -1.4677    1.0258 C   0  0  0  0  0  0  0  0  0  0  0  0
    4.9539    0.0762   -1.0024 C   0  0  0  0  0  0  0  0  0  0  0  0
    4.3889    1.4885    0.8267 C   0  0  0  0  0  0  0  0  0  0  0  0
   -6.2450   -1.9137    0.8471 C   0  0  0  0  0  0  0  0  0  0  0  0
    4.6431   -2.0509    0.2227 C   0  0  0  0  0  0  0  0  0  0  0  0
   -4.4563   -2.2721   -0.7260 C   0  0  0  0  0  0  0  0  0  0  0  0
    5.3355   -1.2046   -0.7912 C   0  0  0  0  0  0  0  0  0  0  0  0
    5.7254    0.9556   -1.9624 C   0  0  0  0  0  0  0  0  0  0  0  0
    0.6776    0.4353   -1.1114 H   0  0  0  0  0  0  0  0  0  0  0  0
   -3.0113    1.0710    1.6821 H   0  0  0  0  0  0  0  0  0  0  0  0
   -1.4999   -1.5914    1.7304 H   0  0  0  0  0  0  0  0  0  0  0  0
   -1.0397   -0.0843    2.4650 H   0  0  0  0  0  0  0  0  0  0  0  0
   -1.3699    1.4888   -2.0314 H   0  0  0  0  0  0  0  0  0  0  0  0
   -0.8675    3.0375   -1.4137 H   0  0  0  0  0  0  0  0  0  0  0  0
    0.8765   -1.5531    2.1490 H   0  0  0  0  0  0  0  0  0  0  0  0
    0.5187   -1.7895    0.4585 H   0  0  0  0  0  0  0  0  0  0  0  0
    2.4209   -0.9282   -0.6911 H   0  0  0  0  0  0  0  0  0  0  0  0
   -2.8451    3.5082   -0.3509 H   0  0  0  0  0  0  0  0  0  0  0  0
   -3.2851    2.8850   -1.8962 H   0  0  0  0  0  0  0  0  0  0  0  0
    1.8549    2.8881    0.2078 H   0  0  0  0  0  0  0  0  0  0  0  0
    1.1845    2.8146   -1.4023 H   0  0  0  0  0  0  0  0  0  0  0  0
   -3.5485   -1.4329    1.6299 H   0  0  0  0  0  0  0  0  0  0  0  0
   -4.7148   -0.2145    1.9581 H   0  0  0  0  0  0  0  0  0  0  0  0
   -0.5611    2.0434    2.2163 H   0  0  0  0  0  0  0  0  0  0  0  0
   -1.8316    2.8897    1.4204 H   0  0  0  0  0  0  0  0  0  0  0  0
   -0.1817    3.3223    1.0637 H   0  0  0  0  0  0  0  0  0  0  0  0
   -0.6556   -1.0176   -1.2745 H   0  0  0  0  0  0  0  0  0  0  0  0
   -2.2648   -0.5103   -1.6739 H   0  0  0  0  0  0  0  0  0  0  0  0
   -1.9815   -1.8430   -0.5488 H   0  0  0  0  0  0  0  0  0  0  0  0
   -5.2126    1.6194   -1.9248 H   0  0  0  0  0  0  0  0  0  0  0  0
   -4.0213    0.3675   -2.0666 H   0  0  0  0  0  0  0  0  0  0  0  0
    2.7441    1.1857   -2.1609 H   0  0  0  0  0  0  0  0  0  0  0  0
    3.5866    2.5577   -1.4580 H   0  0  0  0  0  0  0  0  0  0  0  0
    2.0932    1.9093    2.0705 H   0  0  0  0  0  0  0  0  0  0  0  0
    2.5478    0.3615    2.7752 H   0  0  0  0  0  0  0  0  0  0  0  0
    0.9203    0.9067    2.9060 H   0  0  0  0  0  0  0  0  0  0  0  0
   -6.4808    0.4284   -0.2744 H   0  0  0  0  0  0  0  0  0  0  0  0
   -6.2215   -0.5830   -1.6633 H   0  0  0  0  0  0  0  0  0  0  0  0
   -5.3861    3.1218   -0.0298 H   0  0  0  0  0  0  0  0  0  0  0  0
   -5.5571    1.8200    1.1542 H   0  0  0  0  0  0  0  0  0  0  0  0
   -4.2932    3.0217    1.3548 H   0  0  0  0  0  0  0  0  0  0  0  0
    2.8320   -2.3016    1.2479 H   0  0  0  0  0  0  0  0  0  0  0  0
    3.9048   -1.1093    1.9769 H   0  0  0  0  0  0  0  0  0  0  0  0
    4.2276    2.5802    0.8299 H   0  0  0  0  0  0  0  0  0  0  0  0
   -6.8502   -1.2025    1.4213 H   0  0  0  0  0  0  0  0  0  0  0  0
   -5.8727   -2.6636    1.5549 H   0  0  0  0  0  0  0  0  0  0  0  0
   -6.9146   -2.4278    0.1468 H   0  0  0  0  0  0  0  0  0  0  0  0
    5.1271    1.1711   -2.8530 H   0  0  0  0  0  0  0  0  0  0  0  0
    6.6594    0.4980   -2.3033 H   0  0  0  0  0  0  0  0  0  0  0  0
    5.9975    1.9016   -1.4829 H   0  0  0  0  0  0  0  0  0  0  0  0
   -3.4952   -3.9440   -0.4552 H   0  0  0  0  0  0  0  0  0  0  0  0
    6.5070   -2.6793   -1.1295 H   0  0  0  0  0  0  0  0  0  0  0  0
  1 30  2  0  0  0  0
  2 33  1  0  0  0  0
  2 78  1  0  0  0  0
  3 34  1  0  0  0  0
  3 79  1  0  0  0  0
  4 32  2  0  0  0  0
  5 33  2  0  0  0  0
  6  7  1  0  0  0  0
  6  8  1  0  0  0  0
  6 13  1  0  0  0  0
  6 20  1  0  0  0  0
  7 10  1  0  0  0  0
  7 12  1  0  0  0  0
  7 21  1  0  0  0  0
  8  9  1  0  0  0  0
  8 17  1  0  0  0  0
  8 36  1  0  0  0  0
  9 14  1  0  0  0  0
  9 15  1  0  0  0  0
  9 25  1  0  0  0  0
 10 11  1  0  0  0  0
 10 18  1  0  0  0  0
 10 37  1  0  0  0  0
 11 16  1  0  0  0  0
 11 22  1  0  0  0  0
 11 27  1  0  0  0  0
 12 14  1  0  0  0  0
 12 38  1  0  0  0  0
 12 39  1  0  0  0  0
 13 16  1  0  0  0  0
 13 40  1  0  0  0  0
 13 41  1  0  0  0  0
 14 42  1  0  0  0  0
 14 43  1  0  0  0  0
 15 19  1  0  0  0  0
 15 28  1  0  0  0  0
 15 44  1  0  0  0  0
 16 45  1  0  0  0  0
 16 46  1  0  0  0  0
 17 23  1  0  0  0  0
 17 47  1  0  0  0  0
 17 48  1  0  0  0  0
 18 24  1  0  0  0  0
 18 49  1  0  0  0  0
 18 50  1  0  0  0  0
 19 23  1  0  0  0  0
 19 29  1  0  0  0  0
 19 30  1  0  0  0  0
 20 51  1  0  0  0  0
 20 52  1  0  0  0  0
 20 53  1  0  0  0  0
 21 54  1  0  0  0  0
 21 55  1  0  0  0  0
 21 56  1  0  0  0  0
 22 26  1  0  0  0  0
 22 57  1  0  0  0  0
 22 58  1  0  0  0  0
 23 59  1  0  0  0  0
 23 60  1  0  0  0  0
 24 26  1  0  0  0  0
 24 31  1  0  0  0  0
 24 33  1  0  0  0  0
 25 61  1  0  0  0  0
 25 62  1  0  0  0  0
 25 63  1  0  0  0  0
 26 64  1  0  0  0  0
 26 65  1  0  0  0  0
 27 66  1  0  0  0  0
 27 67  1  0  0  0  0
 27 68  1  0  0  0  0
 28 32  1  0  0  0  0
 28 69  1  0  0  0  0
 28 70  1  0  0  0  0
 29 34  2  0  0  0  0
 29 35  1  0  0  0  0
 30 71  1  0  0  0  0
 31 72  1  0  0  0  0
 31 73  1  0  0  0  0
 31 74  1  0  0  0  0
 32 34  1  0  0  0  0
 35 75  1  0  0  0  0
 35 76  1  0  0  0  0
 35 77  1  0  0  0  0
M  END
> <PUBCHEM_COMPOUND_CID>
101616678

> <PUBCHEM_CONFORMER_RMSD>
0.8

> <PUBCHEM_CONFORMER_DIVERSEORDER>
1

> <PUBCHEM_MMFF94_PARTIAL_CHARGES>
17
1 -0.57
19 0.2
2 -0.65
24 0.06
28 0.06
29 -0.28
3 -0.53
30 0.45
32 0.49
33 0.66
34 0.09
35 0.14
4 -0.57
5 -0.57
71 0.06
78 0.5
79 0.45

> <PUBCHEM_EFFECTIVE_ROTOR_COUNT>
4.2

> <PUBCHEM_PHARMACOPHORE_FEATURES>
11
1 1 acceptor
1 2 acceptor
1 3 donor
1 4 acceptor
1 5 acceptor
3 2 5 33 anion
6 10 11 18 22 24 26 rings
6 15 19 28 29 32 34 rings
6 6 7 10 11 13 16 rings
6 6 7 8 9 12 14 rings
6 8 9 15 17 19 23 rings

> <PUBCHEM_HEAVY_ATOM_COUNT>
35

> <PUBCHEM_ATOM_DEF_STEREO_COUNT>
9

> <PUBCHEM_ATOM_UDEF_STEREO_COUNT>
0

> <PUBCHEM_BOND_DEF_STEREO_COUNT>
0

> <PUBCHEM_BOND_UDEF_STEREO_COUNT>
0

> <PUBCHEM_ISOTOPIC_ATOM_COUNT>
0

> <PUBCHEM_COMPONENT_COUNT>
1

> <PUBCHEM_CACTVS_TAUTO_COUNT>
6

> <PUBCHEM_CONFORMER_ID>
060E8C2600000001

> <PUBCHEM_MMFF94_ENERGY>
162.1403

> <PUBCHEM_FEATURE_SELFOVERLAP>
55.94

> <PUBCHEM_SHAPE_FINGERPRINT>
10369192 42 17555428976196552368
10462674 125 14685489291025226158
10622 236 18043799897513491058
10928967 22 18131340934146513566
11524674 6 17203607061014624479
117089 54 17755876560543420899
11763715 3 18270139945375075464
11796584 16 18130793304746845572
12166972 35 18342183279783619816
12422481 6 17704359874587430903
12633257 1 15195561333806283132
13224815 77 18334004008668760593
13690498 29 18334579036244168309
13782708 43 17917991689371164183
13911987 19 14707215413388153967
14347332 77 18408602543786607371
14910302 57 18411125931419967105
15001296 14 18263920119396163347
15064986 96 18198648643529466915
15082195 135 18042699454288930716
15183329 4 18186804643121271014
15250474 111 18334569097178610042
15361156 5 17968673634845712620
15788980 27 17132113524430409545
15799311 1 18270133322133935191
17349148 13 14836124385516205041
17844677 252 18272934924869206785
17909252 39 18340768148663546026
19958102 18 18334847308248895919
20775438 99 17691667301361721735
21033648 144 13985247538638330356
21267235 1 18261401074602149795
22393880 68 17894903010592932501
23522609 53 18122098396585942060
23559900 14 18410287008390745488
23569914 152 17613402607887173999
24771293 8 18260830445237712788
3004659 81 18408603639377983154
392239 28 10807939249437740030
439807 62 18335425673072109179
44062 13 18411135797228715629
463206 1 18269555099235085431
497634 4 18408326575454141437
508706 21 17458064837464203225
5104073 3 18201435852746998608

> <PUBCHEM_SHAPE_MULTIPOLES>
690.94
15.22
3.11
1.67
3.39
0.79
-0.08
6.92
4.02
-1.34
0.33
0.73
-0.13
-0.24

> <PUBCHEM_SHAPE_SELFOVERLAP>
1483.322

> <PUBCHEM_SHAPE_VOLUME>
369.3

> <PUBCHEM_COORDINATE_TYPE>
2
5
10

$$$$
