122391445
  -OEChem-09122011053D

 52 57  0     1  0  0  0  0  0999 V2000
    3.3463   -1.6696    0.2108 O   0  0  0  0  0  0  0  0  0  0  0  0
    1.0944   -1.3693   -1.2456 O   0  0  0  0  0  0  0  0  0  0  0  0
    0.8539   -1.2522    2.4395 O   0  0  0  0  0  0  0  0  0  0  0  0
    0.9801    1.5764    1.6913 O   0  0  0  0  0  0  0  0  0  0  0  0
    5.3485    0.1274    0.3907 O   0  0  0  0  0  0  0  0  0  0  0  0
    0.9987    2.0433   -1.1386 O   0  0  0  0  0  0  0  0  0  0  0  0
   -5.1799   -1.1345   -0.9122 O   0  0  0  0  0  0  0  0  0  0  0  0
   -6.1122    0.9146   -0.4265 O   0  0  0  0  0  0  0  0  0  0  0  0
    1.1664   -0.7879    1.1395 C   0  0  2  0  0  0  0  0  0  0  0  0
    3.1253   -0.3772   -0.3635 C   0  0  2  0  0  0  0  0  0  0  0  0
    2.6873   -0.6944    1.0328 C   0  0  2  0  0  0  0  0  0  0  0  0
    0.5042    0.5949    0.7812 C   0  0  1  0  0  0  0  0  0  0  0  0
   -1.0760    0.5453    0.7641 C   0  0  2  0  0  0  0  0  0  0  0  0
    0.6503   -1.7881    0.0723 C   0  0  1  0  0  0  0  0  0  0  0  0
    1.9189   -0.1899   -1.2378 C   0  0  2  0  0  0  0  0  0  0  0  0
   -1.5380   -0.5499   -0.2599 C   0  0  1  0  0  0  0  0  0  0  0  0
    1.0896    0.9381   -0.6122 C   0  0  0  0  0  0  0  0  0  0  0  0
   -0.8840   -1.9091    0.0348 C   0  0  0  0  0  0  0  0  0  0  0  0
    4.3540    0.4215   -0.6137 C   0  0  0  0  0  0  0  0  0  0  0  0
   -1.7231    1.9050    0.3212 C   0  0  0  0  0  0  0  0  0  0  0  0
   -1.6062    0.2589    2.2050 C   0  0  0  0  0  0  0  0  0  0  0  0
   -3.0277   -0.5550   -0.4175 C   0  0  0  0  0  0  0  0  0  0  0  0
   -3.2678    1.8628    0.2319 C   0  0  0  0  0  0  0  0  0  0  0  0
    4.0847    1.9382   -0.5060 C   0  0  0  0  0  0  0  0  0  0  0  0
    4.9783    0.1227   -1.9701 C   0  0  0  0  0  0  0  0  0  0  0  0
   -3.7651    0.5345   -0.2106 C   0  0  0  0  0  0  0  0  0  0  0  0
   -3.8521   -1.6799   -0.8878 C   0  0  0  0  0  0  0  0  0  0  0  0
   -5.1489    0.1733   -0.5130 C   0  0  0  0  0  0  0  0  0  0  0  0
    3.1975   -0.2622    1.8798 H   0  0  0  0  0  0  0  0  0  0  0  0
    1.0558   -2.7918    0.2508 H   0  0  0  0  0  0  0  0  0  0  0  0
    2.1588    0.0540   -2.2750 H   0  0  0  0  0  0  0  0  0  0  0  0
   -1.1780   -0.2518   -1.2564 H   0  0  0  0  0  0  0  0  0  0  0  0
   -1.2572   -2.3358    0.9720 H   0  0  0  0  0  0  0  0  0  0  0  0
   -1.1558   -2.6117   -0.7637 H   0  0  0  0  0  0  0  0  0  0  0  0
   -1.3577    2.1819   -0.6737 H   0  0  0  0  0  0  0  0  0  0  0  0
   -1.4333    2.7178    0.9973 H   0  0  0  0  0  0  0  0  0  0  0  0
   -1.1739    0.9591    2.9281 H   0  0  0  0  0  0  0  0  0  0  0  0
   -2.6918    0.3561    2.2924 H   0  0  0  0  0  0  0  0  0  0  0  0
   -1.3895   -0.7540    2.5463 H   0  0  0  0  0  0  0  0  0  0  0  0
    1.2279   -2.1441    2.5403 H   0  0  0  0  0  0  0  0  0  0  0  0
    0.6621    2.4463    1.3985 H   0  0  0  0  0  0  0  0  0  0  0  0
   -3.6074    2.6439   -0.4581 H   0  0  0  0  0  0  0  0  0  0  0  0
   -3.6983    2.1009    1.2117 H   0  0  0  0  0  0  0  0  0  0  0  0
    5.0256    2.5014   -0.5164 H   0  0  0  0  0  0  0  0  0  0  0  0
    3.5894    2.1840    0.4397 H   0  0  0  0  0  0  0  0  0  0  0  0
    3.4742    2.3066   -1.3344 H   0  0  0  0  0  0  0  0  0  0  0  0
    5.9292    0.6535   -2.0963 H   0  0  0  0  0  0  0  0  0  0  0  0
    5.2058   -0.9459   -2.0624 H   0  0  0  0  0  0  0  0  0  0  0  0
    4.3242    0.3992   -2.8025 H   0  0  0  0  0  0  0  0  0  0  0  0
    6.1445    0.6496    0.1925 H   0  0  0  0  0  0  0  0  0  0  0  0
   -3.5821   -2.0040   -1.8968 H   0  0  0  0  0  0  0  0  0  0  0  0
   -3.8330   -2.5303   -0.2006 H   0  0  0  0  0  0  0  0  0  0  0  0
  1 10  1  0  0  0  0
  1 11  1  0  0  0  0
  2 14  1  0  0  0  0
  2 15  1  0  0  0  0
  3  9  1  0  0  0  0
  3 40  1  0  0  0  0
  4 12  1  0  0  0  0
  4 41  1  0  0  0  0
  5 19  1  0  0  0  0
  5 50  1  0  0  0  0
  6 17  2  0  0  0  0
  7 27  1  0  0  0  0
  7 28  1  0  0  0  0
  8 28  2  0  0  0  0
  9 11  1  0  0  0  0
  9 12  1  0  0  0  0
  9 14  1  0  0  0  0
 10 11  1  0  0  0  0
 10 15  1  0  0  0  0
 10 19  1  0  0  0  0
 11 29  1  0  0  0  0
 12 13  1  0  0  0  0
 12 17  1  0  0  0  0
 13 16  1  0  0  0  0
 13 20  1  0  0  0  0
 13 21  1  0  0  0  0
 14 18  1  0  0  0  0
 14 30  1  0  0  0  0
 15 17  1  0  0  0  0
 15 31  1  0  0  0  0
 16 18  1  0  0  0  0
 16 22  1  0  0  0  0
 16 32  1  0  0  0  0
 18 33  1  0  0  0  0
 18 34  1  0  0  0  0
 19 24  1  0  0  0  0
 19 25  1  0  0  0  0
 20 23  1  0  0  0  0
 20 35  1  0  0  0  0
 20 36  1  0  0  0  0
 21 37  1  0  0  0  0
 21 38  1  0  0  0  0
 21 39  1  0  0  0  0
 22 26  2  0  0  0  0
 22 27  1  0  0  0  0
 23 26  1  0  0  0  0
 23 42  1  0  0  0  0
 23 43  1  0  0  0  0
 24 44  1  0  0  0  0
 24 45  1  0  0  0  0
 24 46  1  0  0  0  0
 25 47  1  0  0  0  0
 25 48  1  0  0  0  0
 25 49  1  0  0  0  0
 26 28  1  0  0  0  0
 27 51  1  0  0  0  0
 27 52  1  0  0  0  0
M  END
> <PUBCHEM_COMPOUND_CID>
122391445

> <PUBCHEM_CONFORMER_RMSD>
0.6

> <PUBCHEM_CONFORMER_DIVERSEORDER>
1
2
3

> <PUBCHEM_MMFF94_PARTIAL_CHARGES>
26
1 -0.3
10 -0.04
11 -0.05
12 0.34
14 0.28
15 0.44
16 0.14
17 0.45
19 0.38
2 -0.56
22 -0.28
23 0.14
26 -0.12
27 0.42
28 0.71
29 0.1
3 -0.68
4 -0.68
40 0.4
41 0.4
5 -0.68
50 0.4
6 -0.57
7 -0.43
8 -0.57
9 0.38

> <PUBCHEM_EFFECTIVE_ROTOR_COUNT>
2.4

> <PUBCHEM_PHARMACOPHORE_FEATURES>
15
1 1 acceptor
1 2 acceptor
1 3 acceptor
1 3 donor
1 4 acceptor
1 4 donor
1 5 acceptor
1 5 donor
1 6 acceptor
1 8 acceptor
3 19 24 25 hydrophobe
5 7 22 26 27 28 rings
6 13 16 20 22 23 26 rings
6 9 12 13 14 16 18 rings
9 1 2 9 10 11 12 14 15 17 rings

> <PUBCHEM_HEAVY_ATOM_COUNT>
28

> <PUBCHEM_ATOM_DEF_STEREO_COUNT>
8

> <PUBCHEM_ATOM_UDEF_STEREO_COUNT>
0

> <PUBCHEM_BOND_DEF_STEREO_COUNT>
0

> <PUBCHEM_BOND_UDEF_STEREO_COUNT>
0

> <PUBCHEM_ISOTOPIC_ATOM_COUNT>
0

> <PUBCHEM_COMPONENT_COUNT>
1

> <PUBCHEM_CACTVS_TAUTO_COUNT>
2

> <PUBCHEM_CONFORMER_ID>
074B8B9500000001

> <PUBCHEM_MMFF94_ENERGY>
96.0844

> <PUBCHEM_FEATURE_SELFOVERLAP>
76.429

> <PUBCHEM_SHAPE_FINGERPRINT>
10366900 7 16774076263385878551
10498660 4 18341612564486940829
10863032 1 18058734598233370422
10948715 1 18333454248601713352
11578080 2 16699758236570847266
11796584 16 17847061094983730919
11961588 58 18115302413855487701
12011746 2 17132114645411280942
12035759 4 18410295830247841781
12236239 1 18260263036252773055
12633257 1 10303808778867153781
12670546 177 18272374169670161589
12788726 201 18270116808517633953
13224815 77 17918276437175932763
13544653 18 14908190732702711262
13583140 156 17240775028835448248
13675066 3 12107787423791606636
14790565 3 17411354113568605889
15788980 27 18040999518315799603
1601671 61 18343298146045527279
16752209 62 18200864094495946091
16945 1 18335997444940701322
17349148 13 18342183267008883574
17492 54 18335990830179473164
1813 80 17535735301292915714
18681886 176 18272646891862186404
19862831 5 18343023302276775505
20511986 3 18336528474137990164
21033650 10 18194707889689112460
21857420 4 15617162655191039111
22393880 68 18341894073702031821
23402539 116 18411695504307807231
23557571 272 17203335468251258857
23559900 14 17917984018971030169
2838139 119 17603303769347095508
296302 2 17385730196397173634
3004659 81 18340205181467302494
34797466 226 17703792543783243228
350125 39 18341331115944782545
4340502 62 16588027896559962715
465052 167 13973962129668385909
474 4 17458352956718345876
6669772 16 17127036181755669776
7495541 125 17132110268844848442
9981440 41 17326053352623817576

> <PUBCHEM_SHAPE_MULTIPOLES>
529.27
10.18
1.96
1.59
3.81
0.18
-0.61
1.12
4.34
0.32
0.04
-0.73
-0.1
-0.78

> <PUBCHEM_SHAPE_SELFOVERLAP>
1197.281

> <PUBCHEM_SHAPE_VOLUME>
270.1

> <PUBCHEM_COORDINATE_TYPE>
2
5
10

$$$$
