122391447
  -OEChem-09122011073D

 57 61  0     1  0  0  0  0  0999 V2000
   -0.5291    1.7078    1.7821 O   0  0  0  0  0  0  0  0  0  0  0  0
   -0.7612   -1.2854    1.8373 O   0  0  0  0  0  0  0  0  0  0  0  0
   -3.0713    0.4475    1.8045 O   0  0  0  0  0  0  0  0  0  0  0  0
   -0.3581   -0.8505   -1.7684 O   0  0  0  0  0  0  0  0  0  0  0  0
   -2.5637    0.8012   -1.8101 O   0  0  0  0  0  0  0  0  0  0  0  0
   -2.9803   -2.1001    0.4059 O   0  0  0  0  0  0  0  0  0  0  0  0
   -5.0296   -0.6399    0.4229 O   0  0  0  0  0  0  0  0  0  0  0  0
    5.4541    1.0767   -1.0116 O   0  0  0  0  0  0  0  0  0  0  0  0
    6.3289   -0.9863   -0.4818 O   0  0  0  0  0  0  0  0  0  0  0  0
   -0.9790    0.8456    0.7245 C   0  0  2  0  0  0  0  0  0  0  0  0
   -0.3218   -0.5433    0.6838 C   0  0  1  0  0  0  0  0  0  0  0  0
   -0.1455    2.0923    0.4576 C   0  0  2  0  0  0  0  0  0  0  0  0
    1.2803   -0.4745    0.7313 C   0  0  2  0  0  0  0  0  0  0  0  0
    1.8105    0.6755   -0.2104 C   0  0  1  0  0  0  0  0  0  0  0  0
   -2.4902    0.9220    0.5898 C   0  0  1  0  0  0  0  0  0  0  0  0
    1.3351    2.0551    0.2556 C   0  0  0  0  0  0  0  0  0  0  0  0
   -0.9001   -1.3313   -0.5443 C   0  0  1  0  0  0  0  0  0  0  0  0
   -3.0100    0.1291   -0.6225 C   0  0  2  0  0  0  0  0  0  0  0  0
   -2.4411   -1.3057   -0.6466 C   0  0  2  0  0  0  0  0  0  0  0  0
    1.9386   -1.8233    0.2630 C   0  0  0  0  0  0  0  0  0  0  0  0
    1.7688   -0.2537    2.2045 C   0  0  0  0  0  0  0  0  0  0  0  0
    3.2977    0.5946   -0.4189 C   0  0  0  0  0  0  0  0  0  0  0  0
   -4.5448    0.1209   -0.6810 C   0  0  0  0  0  0  0  0  0  0  0  0
    3.4800   -1.8072    0.2874 C   0  0  0  0  0  0  0  0  0  0  0  0
    4.0072   -0.5094   -0.1958 C   0  0  0  0  0  0  0  0  0  0  0  0
    4.1491    1.6712   -0.9575 C   0  0  0  0  0  0  0  0  0  0  0  0
   -5.0222   -0.5570   -1.9601 C   0  0  0  0  0  0  0  0  0  0  0  0
   -5.0935    1.5404   -0.5801 C   0  0  0  0  0  0  0  0  0  0  0  0
    5.3911   -0.2123   -0.5611 C   0  0  0  0  0  0  0  0  0  0  0  0
   -0.6131    2.9736    0.0402 H   0  0  0  0  0  0  0  0  0  0  0  0
    1.3883    0.5326   -1.2111 H   0  0  0  0  0  0  0  0  0  0  0  0
   -2.7596    1.9805    0.4951 H   0  0  0  0  0  0  0  0  0  0  0  0
    1.8503    2.3660    1.1729 H   0  0  0  0  0  0  0  0  0  0  0  0
    1.5932    2.8047   -0.5033 H   0  0  0  0  0  0  0  0  0  0  0  0
   -0.6010   -2.3832   -0.4503 H   0  0  0  0  0  0  0  0  0  0  0  0
   -2.7023   -1.7887   -1.5953 H   0  0  0  0  0  0  0  0  0  0  0  0
    1.6416   -2.0440   -0.7688 H   0  0  0  0  0  0  0  0  0  0  0  0
    1.5841   -2.6618    0.8743 H   0  0  0  0  0  0  0  0  0  0  0  0
    1.6057   -1.1542    2.8083 H   0  0  0  0  0  0  0  0  0  0  0  0
    2.8359   -0.0199    2.2657 H   0  0  0  0  0  0  0  0  0  0  0  0
    1.2531    0.5618    2.7126 H   0  0  0  0  0  0  0  0  0  0  0  0
   -0.4060   -2.1877    1.7734 H   0  0  0  0  0  0  0  0  0  0  0  0
    3.8550   -2.6271   -0.3359 H   0  0  0  0  0  0  0  0  0  0  0  0
    3.8408   -1.9909    1.3059 H   0  0  0  0  0  0  0  0  0  0  0  0
   -2.7384    1.0079    2.5263 H   0  0  0  0  0  0  0  0  0  0  0  0
   -0.6762   -1.4283   -2.4826 H   0  0  0  0  0  0  0  0  0  0  0  0
    3.8530    1.9719   -1.9665 H   0  0  0  0  0  0  0  0  0  0  0  0
    4.1893    2.5446   -0.3008 H   0  0  0  0  0  0  0  0  0  0  0  0
   -2.6561    1.7603   -1.6873 H   0  0  0  0  0  0  0  0  0  0  0  0
   -2.6306   -3.0017    0.3058 H   0  0  0  0  0  0  0  0  0  0  0  0
   -6.1160   -0.4977   -2.0302 H   0  0  0  0  0  0  0  0  0  0  0  0
   -6.1851    1.5257   -0.6955 H   0  0  0  0  0  0  0  0  0  0  0  0
   -4.8028   -1.6293   -1.9738 H   0  0  0  0  0  0  0  0  0  0  0  0
   -4.6176   -0.0958   -2.8662 H   0  0  0  0  0  0  0  0  0  0  0  0
   -4.9305    1.9858    0.4064 H   0  0  0  0  0  0  0  0  0  0  0  0
   -4.7023    2.2104   -1.3509 H   0  0  0  0  0  0  0  0  0  0  0  0
   -6.0015   -0.6357    0.3880 H   0  0  0  0  0  0  0  0  0  0  0  0
  1 10  1  0  0  0  0
  1 12  1  0  0  0  0
  2 11  1  0  0  0  0
  2 42  1  0  0  0  0
  3 15  1  0  0  0  0
  3 45  1  0  0  0  0
  4 17  1  0  0  0  0
  4 46  1  0  0  0  0
  5 18  1  0  0  0  0
  5 49  1  0  0  0  0
  6 19  1  0  0  0  0
  6 50  1  0  0  0  0
  7 23  1  0  0  0  0
  7 57  1  0  0  0  0
  8 26  1  0  0  0  0
  8 29  1  0  0  0  0
  9 29  2  0  0  0  0
 10 11  1  0  0  0  0
 10 12  1  0  0  0  0
 10 15  1  0  0  0  0
 11 13  1  0  0  0  0
 11 17  1  0  0  0  0
 12 16  1  0  0  0  0
 12 30  1  0  0  0  0
 13 14  1  0  0  0  0
 13 20  1  0  0  0  0
 13 21  1  0  0  0  0
 14 16  1  0  0  0  0
 14 22  1  0  0  0  0
 14 31  1  0  0  0  0
 15 18  1  0  0  0  0
 15 32  1  0  0  0  0
 16 33  1  0  0  0  0
 16 34  1  0  0  0  0
 17 19  1  0  0  0  0
 17 35  1  0  0  0  0
 18 19  1  0  0  0  0
 18 23  1  0  0  0  0
 19 36  1  0  0  0  0
 20 24  1  0  0  0  0
 20 37  1  0  0  0  0
 20 38  1  0  0  0  0
 21 39  1  0  0  0  0
 21 40  1  0  0  0  0
 21 41  1  0  0  0  0
 22 25  2  0  0  0  0
 22 26  1  0  0  0  0
 23 27  1  0  0  0  0
 23 28  1  0  0  0  0
 24 25  1  0  0  0  0
 24 43  1  0  0  0  0
 24 44  1  0  0  0  0
 25 29  1  0  0  0  0
 26 47  1  0  0  0  0
 26 48  1  0  0  0  0
 27 51  1  0  0  0  0
 27 53  1  0  0  0  0
 27 54  1  0  0  0  0
 28 52  1  0  0  0  0
 28 55  1  0  0  0  0
 28 56  1  0  0  0  0
M  END
> <PUBCHEM_COMPOUND_CID>
122391447

> <PUBCHEM_CONFORMER_RMSD>
0.8

> <PUBCHEM_CONFORMER_DIVERSEORDER>
1

> <PUBCHEM_MMFF94_PARTIAL_CHARGES>
31
1 -0.3
10 -0.04
11 0.38
12 -0.05
14 0.14
15 0.38
16 0.09
17 0.28
18 0.28
19 0.28
2 -0.68
22 -0.28
23 0.28
24 0.14
25 -0.12
26 0.42
29 0.71
3 -0.68
30 0.1
4 -0.68
42 0.4
45 0.4
46 0.4
49 0.4
5 -0.68
50 0.4
57 0.4
6 -0.68
7 -0.68
8 -0.43
9 -0.57

> <PUBCHEM_EFFECTIVE_ROTOR_COUNT>
3

> <PUBCHEM_PHARMACOPHORE_FEATURES>
19
1 1 acceptor
1 2 acceptor
1 2 donor
1 3 acceptor
1 3 donor
1 4 acceptor
1 4 donor
1 5 acceptor
1 5 donor
1 6 acceptor
1 6 donor
1 7 acceptor
1 7 donor
1 9 acceptor
3 23 27 28 hydrophobe
5 8 22 25 26 29 rings
6 10 11 15 17 18 19 rings
6 13 14 20 22 24 25 rings
7 1 10 11 12 13 14 16 rings

> <PUBCHEM_HEAVY_ATOM_COUNT>
29

> <PUBCHEM_ATOM_DEF_STEREO_COUNT>
9

> <PUBCHEM_ATOM_UDEF_STEREO_COUNT>
0

> <PUBCHEM_BOND_DEF_STEREO_COUNT>
0

> <PUBCHEM_BOND_UDEF_STEREO_COUNT>
0

> <PUBCHEM_ISOTOPIC_ATOM_COUNT>
0

> <PUBCHEM_COMPONENT_COUNT>
1

> <PUBCHEM_CACTVS_TAUTO_COUNT>
1

> <PUBCHEM_CONFORMER_ID>
074B8B9700000001

> <PUBCHEM_MMFF94_ENERGY>
100.7609

> <PUBCHEM_FEATURE_SELFOVERLAP>
96.62

> <PUBCHEM_SHAPE_FINGERPRINT>
10863032 1 18260826033714455315
10906281 52 18058745606556283985
11315181 36 17275386499689850496
11796584 16 16487252175390547101
12011746 2 17917988352423856341
12035759 4 18411418393255323824
12236239 1 18343584027690345180
12467345 10 18334577944989918940
12553582 1 18272930509647821976
12670546 177 18260545628015835478
12788726 201 17916869002210551025
12969540 114 17022892458885412767
13224815 77 18413106182385097610
13288520 33 17203890738576119640
13583140 156 16732991928892268816
13690498 29 18266455606559369599
13782708 43 17095526179794417154
14294032 229 16700911367446436905
14790565 3 18265337205522838049
15183329 4 18334853892153925884
15209294 21 12540691530993459988
15238133 3 18116974650924994217
1601671 61 18343298137381999397
16752209 62 17418093191568641018
16945 1 18412252939787048969
17349148 13 17632859741497432309
17959699 21 18040434382493212596
1813 80 13973974211975729696
18681886 176 18272644658922271714
19862831 5 18334572460348336578
200 152 18343585135702262572
20511986 3 18342162376530808804
20775438 99 16334365281481359215
21033648 29 17167859798458600796
21033650 10 17201391536357732896
21267235 1 18342185461711077182
21756936 100 14056995044469100934
221357 26 18335693940676206029
22182313 1 18052252087871022912
22393880 68 18187074091952104495
23227448 37 17749679613295286980
23402539 116 18060140903527876008
23559900 14 17917419973674347992
25147074 1 18196655086211295608
2838139 119 16226042314734577452
296302 2 15285352908149797361
3004659 81 18408882919742157876
3286 77 11743836980021873970
392239 28 11170206315246437717
4058900 60 17969502607105706931
4340502 62 17240208715827461419
463206 1 16773793684618697070
474 4 17894919563713142572
59755656 520 16877663465689090106

> <PUBCHEM_SHAPE_MULTIPOLES>
543.98
11.19
1.98
1.61
3.75
0.19
0.3
-0.24
-4.98
0.32
0.15
-0.75
0.02
-0.57

> <PUBCHEM_SHAPE_SELFOVERLAP>
1200.182

> <PUBCHEM_SHAPE_VOLUME>
285.2

> <PUBCHEM_COORDINATE_TYPE>
2
5
10

$$$$
