173273
  -OEChem-09122010123D

 47 50  0     1  0  0  0  0  0999 V2000
   -5.1276    1.0195    0.2860 O   0  0  0  0  0  0  0  0  0  0  0  0
    3.4165    2.1906    0.1261 O   0  0  0  0  0  0  0  0  0  0  0  0
   -5.8143   -1.1772    0.2196 O   0  0  0  0  0  0  0  0  0  0  0  0
   -0.6851   -0.5622   -0.3770 C   0  0  2  0  0  0  0  0  0  0  0  0
   -1.3925    0.7142    0.2159 C   0  0  1  0  0  0  0  0  0  0  0  0
   -1.3106   -1.8062    0.3389 C   0  0  0  0  0  0  0  0  0  0  0  0
   -0.8506    1.9817   -0.4473 C   0  0  0  0  0  0  0  0  0  0  0  0
    0.8315   -0.4255   -0.1701 C   0  0  0  0  0  0  0  0  0  0  0  0
   -2.8854    0.5843    0.1970 C   0  0  0  0  0  0  0  0  0  0  0  0
   -2.8386   -1.9215    0.1560 C   0  0  0  0  0  0  0  0  0  0  0  0
    0.6380    2.1368   -0.1380 C   0  0  0  0  0  0  0  0  0  0  0  0
   -0.8965   -0.7133   -1.9086 C   0  0  0  0  0  0  0  0  0  0  0  0
    1.4332    0.8524   -0.1065 C   0  0  0  0  0  0  0  0  0  0  0  0
   -3.4990   -0.5960    0.1809 C   0  0  0  0  0  0  0  0  0  0  0  0
   -3.8575    1.6884    0.2753 C   0  0  0  0  0  0  0  0  0  0  0  0
    1.6657   -1.5581   -0.1193 C   0  0  0  0  0  0  0  0  0  0  0  0
    2.8282    0.9595    0.0401 C   0  0  0  0  0  0  0  0  0  0  0  0
   -4.9358   -0.3330    0.2273 C   0  0  0  0  0  0  0  0  0  0  0  0
    3.6306   -0.1761    0.1043 C   0  0  0  0  0  0  0  0  0  0  0  0
    3.0492   -1.4345    0.0219 C   0  0  0  0  0  0  0  0  0  0  0  0
    5.1114   -0.0643    0.2571 C   0  0  0  0  0  0  0  0  0  0  0  0
    5.8721   -0.6567   -0.9436 C   0  0  0  0  0  0  0  0  0  0  0  0
    5.6171   -0.7029    1.5639 C   0  0  0  0  0  0  0  0  0  0  0  0
   -1.1291    0.7843    1.2842 H   0  0  0  0  0  0  0  0  0  0  0  0
   -1.0850   -1.7506    1.4133 H   0  0  0  0  0  0  0  0  0  0  0  0
   -0.8669   -2.7433   -0.0162 H   0  0  0  0  0  0  0  0  0  0  0  0
   -1.3729    2.8758   -0.0853 H   0  0  0  0  0  0  0  0  0  0  0  0
   -1.0133    1.9588   -1.5309 H   0  0  0  0  0  0  0  0  0  0  0  0
   -3.2455   -2.5666    0.9428 H   0  0  0  0  0  0  0  0  0  0  0  0
   -3.0554   -2.4094   -0.8017 H   0  0  0  0  0  0  0  0  0  0  0  0
    0.7340    2.6080    0.8494 H   0  0  0  0  0  0  0  0  0  0  0  0
    1.0699    2.8265   -0.8735 H   0  0  0  0  0  0  0  0  0  0  0  0
   -0.5202   -1.6823   -2.2592 H   0  0  0  0  0  0  0  0  0  0  0  0
   -1.9500   -0.6510   -2.1972 H   0  0  0  0  0  0  0  0  0  0  0  0
   -0.3586    0.0518   -2.4798 H   0  0  0  0  0  0  0  0  0  0  0  0
   -3.7547    2.2715    1.1947 H   0  0  0  0  0  0  0  0  0  0  0  0
   -3.8161    2.3476   -0.5963 H   0  0  0  0  0  0  0  0  0  0  0  0
    1.2568   -2.5604   -0.2036 H   0  0  0  0  0  0  0  0  0  0  0  0
    3.6498   -2.3392    0.0591 H   0  0  0  0  0  0  0  0  0  0  0  0
    5.4294    0.9823    0.2962 H   0  0  0  0  0  0  0  0  0  0  0  0
    4.0200    2.1887    0.8883 H   0  0  0  0  0  0  0  0  0  0  0  0
    5.7221   -1.7380   -1.0323 H   0  0  0  0  0  0  0  0  0  0  0  0
    6.9484   -0.4789   -0.8426 H   0  0  0  0  0  0  0  0  0  0  0  0
    5.5417   -0.1938   -1.8802 H   0  0  0  0  0  0  0  0  0  0  0  0
    5.1059   -0.2698    2.4309 H   0  0  0  0  0  0  0  0  0  0  0  0
    6.6917   -0.5283    1.6861 H   0  0  0  0  0  0  0  0  0  0  0  0
    5.4531   -1.7857    1.5829 H   0  0  0  0  0  0  0  0  0  0  0  0
  1 15  1  0  0  0  0
  1 18  1  0  0  0  0
  2 17  1  0  0  0  0
  2 41  1  0  0  0  0
  3 18  2  0  0  0  0
  4  5  1  0  0  0  0
  4  6  1  0  0  0  0
  4  8  1  0  0  0  0
  4 12  1  0  0  0  0
  5  7  1  0  0  0  0
  5  9  1  0  0  0  0
  5 24  1  0  0  0  0
  6 10  1  0  0  0  0
  6 25  1  0  0  0  0
  6 26  1  0  0  0  0
  7 11  1  0  0  0  0
  7 27  1  0  0  0  0
  7 28  1  0  0  0  0
  8 13  2  0  0  0  0
  8 16  1  0  0  0  0
  9 14  2  0  0  0  0
  9 15  1  0  0  0  0
 10 14  1  0  0  0  0
 10 29  1  0  0  0  0
 10 30  1  0  0  0  0
 11 13  1  0  0  0  0
 11 31  1  0  0  0  0
 11 32  1  0  0  0  0
 12 33  1  0  0  0  0
 12 34  1  0  0  0  0
 12 35  1  0  0  0  0
 13 17  1  0  0  0  0
 14 18  1  0  0  0  0
 15 36  1  0  0  0  0
 15 37  1  0  0  0  0
 16 20  2  0  0  0  0
 16 38  1  0  0  0  0
 17 19  2  0  0  0  0
 19 20  1  0  0  0  0
 19 21  1  0  0  0  0
 20 39  1  0  0  0  0
 21 22  1  0  0  0  0
 21 23  1  0  0  0  0
 21 40  1  0  0  0  0
 22 42  1  0  0  0  0
 22 43  1  0  0  0  0
 22 44  1  0  0  0  0
 23 45  1  0  0  0  0
 23 46  1  0  0  0  0
 23 47  1  0  0  0  0
M  END
> <PUBCHEM_COMPOUND_CID>
173273

> <PUBCHEM_CONFORMER_RMSD>
0.6

> <PUBCHEM_CONFORMER_DIVERSEORDER>
1

> <PUBCHEM_MMFF94_PARTIAL_CHARGES>
21
1 -0.43
10 0.14
11 0.14
13 -0.14
14 -0.12
15 0.42
16 -0.15
17 0.08
18 0.71
19 -0.14
2 -0.53
20 -0.15
21 0.14
3 -0.57
38 0.15
39 0.15
4 0.14
41 0.45
5 0.14
8 -0.14
9 -0.28

> <PUBCHEM_EFFECTIVE_ROTOR_COUNT>
2.2

> <PUBCHEM_PHARMACOPHORE_FEATURES>
7
1 2 donor
1 3 acceptor
3 21 22 23 hydrophobe
5 1 9 14 15 18 rings
6 4 5 6 9 10 14 rings
6 4 5 7 8 11 13 rings
6 8 13 16 17 19 20 rings

> <PUBCHEM_HEAVY_ATOM_COUNT>
23

> <PUBCHEM_ATOM_DEF_STEREO_COUNT>
2

> <PUBCHEM_ATOM_UDEF_STEREO_COUNT>
0

> <PUBCHEM_BOND_DEF_STEREO_COUNT>
0

> <PUBCHEM_BOND_UDEF_STEREO_COUNT>
0

> <PUBCHEM_ISOTOPIC_ATOM_COUNT>
0

> <PUBCHEM_COMPONENT_COUNT>
1

> <PUBCHEM_CACTVS_TAUTO_COUNT>
3

> <PUBCHEM_CONFORMER_ID>
0002A4D900000001

> <PUBCHEM_MMFF94_ENERGY>
62.5862

> <PUBCHEM_FEATURE_SELFOVERLAP>
35.626

> <PUBCHEM_SHAPE_FINGERPRINT>
10 15 18342165701188878816
10366900 7 17967540060196023216
10906281 52 18264228970335740834
11578080 2 13986386649833336492
11963148 33 18407754842108912338
12011746 2 18409729547758436717
12107183 9 17761492487109293315
12236239 1 17917993884020025450
12251169 10 18412263938913340215
12403814 3 17240201014893265711
12553582 1 18337659854987487884
12633257 1 18333726918753263474
12788726 201 18261674753670360872
128620 24 10953455237065631650
13140716 1 18338791325393287880
13583140 156 15123500432538100966
13675066 3 17989202668615000274
13862211 1 18408318891108652819
14341114 176 18336272348374778065
14787075 74 18260270750050869104
14790565 3 18337962293774014596
15042514 8 18267307723944622771
15196674 1 18410576231445915633
15209289 33 18113335314813519194
15238133 3 18336839610243581020
1601671 61 18413110533281874686
17349148 13 18342175587649718629
17804303 29 18411984675860864548
1813 80 17313108527446153334
19141452 34 17846494863743899774
19784866 170 18340772554740984670
200 152 18131632283484431219
20028762 73 18201435934557878439
21033648 29 17131255883706268210
21267235 1 18410865368681270539
21279426 13 18194685860590575462
21421861 104 17823974524971300962
21682296 61 17559127484140470590
22182313 1 18058171618178391932
2297311 6 18341905056497494308
23402539 116 18341607118837265471
23522609 53 17970939715980149444
23557571 272 18272098141239399084
23559900 14 18340484564230392280
23569914 152 12617192195595401947
26918003 58 18113337518068315011
3004659 81 18260834800154267188
335352 9 18410294700618806261
3411729 13 18268142253470571816
34934 24 18410570648025438539
350125 39 18410013239128728132
3545911 37 18343304751425932882
3680242 22 18261392187845582802
3886686 26 16894241623361971386
4214541 1 18410294701019706561
465052 167 18261116300241496082
5104073 3 18338237175300245128
542803 24 17313107445029965630
59755656 215 18341338790914327286
9709674 26 18411990147823565351
9981440 41 17253995771222878544

> <PUBCHEM_SHAPE_MULTIPOLES>
455.72
12.04
2.09
0.96
3.09
0.54
-0.19
-1.88
2.34
-0.56
0.02
0.63
-0.2
-0.08

> <PUBCHEM_SHAPE_SELFOVERLAP>
1000.413

> <PUBCHEM_SHAPE_VOLUME>
247

> <PUBCHEM_COORDINATE_TYPE>
2
5
10

$$$$
