197582
  -OEChem-09122011403D

 50 54  0     1  0  0  0  0  0999 V2000
   -2.9437   -0.9789   -1.7133 O   0  0  0  0  0  0  0  0  0  0  0  0
   -1.3276   -2.4757    1.2352 O   0  0  0  0  0  0  0  0  0  0  0  0
   -3.2787    1.3372    1.1346 O   0  0  0  0  0  0  0  0  0  0  0  0
    5.3216    1.1342   -0.4559 O   0  0  0  0  0  0  0  0  0  0  0  0
   -1.0546    3.0674    0.3977 O   0  0  0  0  0  0  0  0  0  0  0  0
    6.1016   -1.0198   -0.2217 O   0  0  0  0  0  0  0  0  0  0  0  0
   -3.4532   -0.3583   -0.5230 C   0  0  1  0  0  0  0  0  0  0  0  0
   -2.7730   -1.6860   -0.4728 C   0  0  2  0  0  0  0  0  0  0  0  0
    0.9480   -0.5723    0.4003 C   0  0  2  0  0  0  0  0  0  0  0  0
   -1.3490   -1.7870   -0.0154 C   0  0  1  0  0  0  0  0  0  0  0  0
   -2.7107    0.8641   -0.0919 C   0  0  2  0  0  0  0  0  0  0  0  0
   -0.5751   -0.4825    0.1510 C   0  0  0  0  0  0  0  0  0  0  0  0
   -1.2178    0.7101    0.1105 C   0  0  0  0  0  0  0  0  0  0  0  0
    1.6047    0.6928   -0.2587 C   0  0  1  0  0  0  0  0  0  0  0  0
   -4.9405   -0.3059   -0.5142 C   0  0  0  0  0  0  0  0  0  0  0  0
    1.6321   -1.8285   -0.2337 C   0  0  0  0  0  0  0  0  0  0  0  0
    1.0537    1.9682    0.3670 C   0  0  0  0  0  0  0  0  0  0  0  0
   -0.4557    1.9961    0.2895 C   0  0  0  0  0  0  0  0  0  0  0  0
    3.1022    0.6182   -0.2731 C   0  0  0  0  0  0  0  0  0  0  0  0
    1.1634   -0.6165    1.9380 C   0  0  0  0  0  0  0  0  0  0  0  0
    3.1598   -1.8735   -0.0273 C   0  0  0  0  0  0  0  0  0  0  0  0
    3.7656   -0.5303   -0.1725 C   0  0  0  0  0  0  0  0  0  0  0  0
   -5.5101   -0.3632    0.9166 C   0  0  0  0  0  0  0  0  0  0  0  0
   -5.4763    0.9551   -1.2199 C   0  0  0  0  0  0  0  0  0  0  0  0
    4.0250    1.7500   -0.4693 C   0  0  0  0  0  0  0  0  0  0  0  0
    5.1885   -0.2149   -0.2778 C   0  0  0  0  0  0  0  0  0  0  0  0
   -3.3440   -2.5952   -0.3432 H   0  0  0  0  0  0  0  0  0  0  0  0
   -0.8438   -2.4241   -0.7476 H   0  0  0  0  0  0  0  0  0  0  0  0
   -2.8709    1.6388   -0.8524 H   0  0  0  0  0  0  0  0  0  0  0  0
    1.3082    0.7072   -1.3208 H   0  0  0  0  0  0  0  0  0  0  0  0
   -5.3365   -1.1769   -1.0544 H   0  0  0  0  0  0  0  0  0  0  0  0
    1.4253   -1.8434   -1.3131 H   0  0  0  0  0  0  0  0  0  0  0  0
    1.2142   -2.7560    0.1759 H   0  0  0  0  0  0  0  0  0  0  0  0
    1.4226    2.8404   -0.1870 H   0  0  0  0  0  0  0  0  0  0  0  0
    1.3555    2.0835    1.4133 H   0  0  0  0  0  0  0  0  0  0  0  0
    0.8893   -1.5955    2.3471 H   0  0  0  0  0  0  0  0  0  0  0  0
    2.2050   -0.4320    2.2191 H   0  0  0  0  0  0  0  0  0  0  0  0
    0.5551    0.1281    2.4641 H   0  0  0  0  0  0  0  0  0  0  0  0
    3.5978   -2.5715   -0.7497 H   0  0  0  0  0  0  0  0  0  0  0  0
    3.3853   -2.2629    0.9724 H   0  0  0  0  0  0  0  0  0  0  0  0
   -5.4642    0.5953    1.4400 H   0  0  0  0  0  0  0  0  0  0  0  0
   -6.5700   -0.6402    0.8770 H   0  0  0  0  0  0  0  0  0  0  0  0
   -4.9931   -1.1162    1.5206 H   0  0  0  0  0  0  0  0  0  0  0  0
   -5.2321    1.8737   -0.6769 H   0  0  0  0  0  0  0  0  0  0  0  0
   -6.5673    0.9051   -1.3063 H   0  0  0  0  0  0  0  0  0  0  0  0
   -5.0626    1.0389   -2.2306 H   0  0  0  0  0  0  0  0  0  0  0  0
   -1.7982   -1.9271    1.8864 H   0  0  0  0  0  0  0  0  0  0  0  0
   -2.9527    2.2408    1.2851 H   0  0  0  0  0  0  0  0  0  0  0  0
    3.8773    2.2475   -1.4320 H   0  0  0  0  0  0  0  0  0  0  0  0
    3.9749    2.4797    0.3436 H   0  0  0  0  0  0  0  0  0  0  0  0
  1  7  1  0  0  0  0
  1  8  1  0  0  0  0
  2 10  1  0  0  0  0
  2 47  1  0  0  0  0
  3 11  1  0  0  0  0
  3 48  1  0  0  0  0
  4 25  1  0  0  0  0
  4 26  1  0  0  0  0
  5 18  2  0  0  0  0
  6 26  2  0  0  0  0
  7  8  1  0  0  0  0
  7 11  1  0  0  0  0
  7 15  1  0  0  0  0
  8 10  1  0  0  0  0
  8 27  1  0  0  0  0
  9 12  1  0  0  0  0
  9 14  1  0  0  0  0
  9 16  1  0  0  0  0
  9 20  1  0  0  0  0
 10 12  1  0  0  0  0
 10 28  1  0  0  0  0
 11 13  1  0  0  0  0
 11 29  1  0  0  0  0
 12 13  2  0  0  0  0
 13 18  1  0  0  0  0
 14 17  1  0  0  0  0
 14 19  1  0  0  0  0
 14 30  1  0  0  0  0
 15 23  1  0  0  0  0
 15 24  1  0  0  0  0
 15 31  1  0  0  0  0
 16 21  1  0  0  0  0
 16 32  1  0  0  0  0
 16 33  1  0  0  0  0
 17 18  1  0  0  0  0
 17 34  1  0  0  0  0
 17 35  1  0  0  0  0
 19 22  2  0  0  0  0
 19 25  1  0  0  0  0
 20 36  1  0  0  0  0
 20 37  1  0  0  0  0
 20 38  1  0  0  0  0
 21 22  1  0  0  0  0
 21 39  1  0  0  0  0
 21 40  1  0  0  0  0
 22 26  1  0  0  0  0
 23 41  1  0  0  0  0
 23 42  1  0  0  0  0
 23 43  1  0  0  0  0
 24 44  1  0  0  0  0
 24 45  1  0  0  0  0
 24 46  1  0  0  0  0
 25 49  1  0  0  0  0
 25 50  1  0  0  0  0
M  END
> <PUBCHEM_COMPOUND_CID>
197582

> <PUBCHEM_CONFORMER_RMSD>
0.6

> <PUBCHEM_CONFORMER_DIVERSEORDER>
1

> <PUBCHEM_MMFF94_PARTIAL_CHARGES>
25
1 -0.3
10 0.51
11 0.51
12 -0.28
13 -0.12
14 0.14
15 0.09
17 0.06
18 0.49
19 -0.28
2 -0.68
21 0.14
22 -0.12
25 0.42
26 0.71
27 0.1
3 -0.68
4 -0.43
47 0.4
48 0.4
5 -0.57
6 -0.57
7 -0.04
8 -0.05
9 0.14

> <PUBCHEM_EFFECTIVE_ROTOR_COUNT>
2.6

> <PUBCHEM_PHARMACOPHORE_FEATURES>
12
1 1 acceptor
1 2 acceptor
1 2 donor
1 3 acceptor
1 3 donor
1 5 acceptor
1 6 acceptor
3 15 23 24 hydrophobe
5 4 19 22 25 26 rings
6 9 12 13 14 17 18 rings
6 9 14 16 19 21 22 rings
7 1 7 8 10 11 12 13 rings

> <PUBCHEM_HEAVY_ATOM_COUNT>
26

> <PUBCHEM_ATOM_DEF_STEREO_COUNT>
6

> <PUBCHEM_ATOM_UDEF_STEREO_COUNT>
0

> <PUBCHEM_BOND_DEF_STEREO_COUNT>
0

> <PUBCHEM_BOND_UDEF_STEREO_COUNT>
0

> <PUBCHEM_ISOTOPIC_ATOM_COUNT>
0

> <PUBCHEM_COMPONENT_COUNT>
1

> <PUBCHEM_CACTVS_TAUTO_COUNT>
2

> <PUBCHEM_CONFORMER_ID>
000303CE00000001

> <PUBCHEM_MMFF94_ENERGY>
51.0097

> <PUBCHEM_FEATURE_SELFOVERLAP>
60.991

> <PUBCHEM_SHAPE_FINGERPRINT>
10616163 171 18343304751768785566
10906281 52 18270418151342694190
11315181 36 18131072658268311136
11578080 2 13263835973991326100
12011746 2 18341608209637717357
12166972 35 17749394784350227028
12236239 1 18333450941054960804
12553582 1 18340757200290728801
12788726 201 18340763732751415665
13140716 1 18267312108525522432
13583140 156 16298391279164273416
13862211 1 18412824689753783158
14790565 3 18339647724761273985
14955137 171 18338247075790913369
15196674 1 18338797922162309126
1601671 61 18342454854870677861
16752209 62 18267008484634639585
16945 1 18336558148504978976
17349148 13 18260827090608674096
17492 89 18195529190621220262
17959699 21 18113896061269311204
18608769 82 18189338034456526531
19489759 90 14764351531242159499
19862831 5 18333724740940970167
200 152 18202002144612048470
20775438 99 16618663850901599935
21033648 29 17677035919546744325
21033650 10 17344098254101279376
21267235 1 18412272726464069502
21285901 2 18059862714090241429
23352939 185 18060423525266175600
23402539 116 18413385427888763556
23557571 272 17917714557080896232
23559900 14 18339920532620458400
23566358 2 18267018362800600700
2871803 45 18410854348296167196
3004659 81 18333446539277880860
335352 9 18411418418697943932
34797466 226 16271931562217974560
34934 24 18411131480728632102
350125 39 18339361859874085216
3545911 37 18334860532168259398
4058900 60 17750793251840639195
4340502 62 16443349754230417659
474 4 17822297920099376292
5104073 3 18338234980804195290
59755656 215 18409450246204372854
59755656 520 17240482515656098211
633830 44 17604705702849780614
9709674 26 18341340998506158382
9981440 41 17328863713108460256

> <PUBCHEM_SHAPE_MULTIPOLES>
499.85
11.46
2.37
1.1
1.7
0.48
0.2
0.02
-2.65
0.21
0.27
-0.75
-0.16
-0.19

> <PUBCHEM_SHAPE_SELFOVERLAP>
1103.34

> <PUBCHEM_SHAPE_VOLUME>
267.1

> <PUBCHEM_COORDINATE_TYPE>
2
5
10

$$$$
