101707493
  -OEChem-09122009493D

 77 81  0     1  0  0  0  0  0999 V2000
   -4.9500   -1.5783   -1.8137 O   0  0  0  0  0  0  0  0  0  0  0  0
    4.2021   -3.3119   -0.0743 O   0  0  0  0  0  0  0  0  0  0  0  0
    4.1263   -2.3663    1.9983 O   0  0  0  0  0  0  0  0  0  0  0  0
   -7.1034   -0.9693    0.2153 O   0  0  0  0  0  0  0  0  0  0  0  0
    1.4057    0.0833   -0.1973 C   0  0  2  0  0  0  0  0  0  0  0  0
    0.4521    1.3543   -0.2831 C   0  0  1  0  0  0  0  0  0  0  0  0
   -0.9959    0.9761    0.2496 C   0  0  2  0  0  0  0  0  0  0  0  0
    2.8090    0.4644   -0.8439 C   0  0  1  0  0  0  0  0  0  0  0  0
   -1.6903   -0.2811   -0.4123 C   0  0  1  0  0  0  0  0  0  0  0  0
    3.4914    1.7617   -0.2654 C   0  0  1  0  0  0  0  0  0  0  0  0
    0.7305   -1.0893   -0.9707 C   0  0  0  0  0  0  0  0  0  0  0  0
    1.0662    2.4944    0.5864 C   0  0  0  0  0  0  0  0  0  0  0  0
   -0.6737   -1.4549   -0.4653 C   0  0  0  0  0  0  0  0  0  0  0  0
    2.5979    2.5385    0.7389 C   0  0  0  0  0  0  0  0  0  0  0  0
   -2.9310   -0.6592    0.5164 C   0  0  1  0  0  0  0  0  0  0  0  0
    3.8338   -0.6836   -1.0698 C   0  0  0  0  0  0  0  0  0  0  0  0
   -1.9909    2.1519    0.3424 C   0  0  0  0  0  0  0  0  0  0  0  0
    4.8656    1.4625    0.4184 C   0  0  0  0  0  0  0  0  0  0  0  0
    1.5733   -0.4177    1.2655 C   0  0  0  0  0  0  0  0  0  0  0  0
    0.3296    1.9292   -1.7247 C   0  0  0  0  0  0  0  0  0  0  0  0
    4.7977   -1.0380    0.0841 C   0  0  2  0  0  0  0  0  0  0  0  0
    4.9485    0.1042    1.0962 C   0  0  0  0  0  0  0  0  0  0  0  0
   -2.2070   -0.0344   -1.8475 C   0  0  0  0  0  0  0  0  0  0  0  0
   -3.1929    1.7788    1.2139 C   0  0  0  0  0  0  0  0  0  0  0  0
    3.8633    2.7297   -1.4261 C   0  0  0  0  0  0  0  0  0  0  0  0
   -3.8916    0.5101    0.7595 C   0  0  0  0  0  0  0  0  0  0  0  0
   -3.6399   -1.9942    0.1954 C   0  0  0  0  0  0  0  0  0  0  0  0
    6.1733   -1.4139   -0.5048 C   0  0  0  0  0  0  0  0  0  0  0  0
   -5.2373    0.4348    0.6567 C   0  0  0  0  0  0  0  0  0  0  0  0
   -5.0172   -1.8970   -0.4361 C   0  0  1  0  0  0  0  0  0  0  0  0
    4.3415   -2.2841    0.7981 C   0  0  0  0  0  0  0  0  0  0  0  0
   -5.8803   -0.8294    0.1785 C   0  0  0  0  0  0  0  0  0  0  0  0
   -6.2064    1.5289    1.0213 C   0  0  0  0  0  0  0  0  0  0  0  0
   -0.8357    0.7038    1.3011 H   0  0  0  0  0  0  0  0  0  0  0  0
    2.5415    0.7160   -1.8807 H   0  0  0  0  0  0  0  0  0  0  0  0
    1.3391   -1.9973   -0.8821 H   0  0  0  0  0  0  0  0  0  0  0  0
    0.6863   -0.8763   -2.0437 H   0  0  0  0  0  0  0  0  0  0  0  0
    0.6566    2.4383    1.6044 H   0  0  0  0  0  0  0  0  0  0  0  0
    0.7314    3.4701    0.2084 H   0  0  0  0  0  0  0  0  0  0  0  0
   -1.0474   -2.2560   -1.1149 H   0  0  0  0  0  0  0  0  0  0  0  0
   -0.5865   -1.9102    0.5286 H   0  0  0  0  0  0  0  0  0  0  0  0
    2.9031    3.5943    0.7654 H   0  0  0  0  0  0  0  0  0  0  0  0
    2.8259    2.1923    1.7554 H   0  0  0  0  0  0  0  0  0  0  0  0
   -2.4786   -0.8435    1.5057 H   0  0  0  0  0  0  0  0  0  0  0  0
    4.4532   -0.3457   -1.9155 H   0  0  0  0  0  0  0  0  0  0  0  0
    3.3268   -1.5671   -1.4671 H   0  0  0  0  0  0  0  0  0  0  0  0
   -2.3437    2.4656   -0.6448 H   0  0  0  0  0  0  0  0  0  0  0  0
   -1.5157    3.0297    0.7925 H   0  0  0  0  0  0  0  0  0  0  0  0
    5.0999    2.2458    1.1514 H   0  0  0  0  0  0  0  0  0  0  0  0
    5.6764    1.5143   -0.3209 H   0  0  0  0  0  0  0  0  0  0  0  0
    2.1408    0.2528    1.9034 H   0  0  0  0  0  0  0  0  0  0  0  0
    2.0486   -1.3956    1.2811 H   0  0  0  0  0  0  0  0  0  0  0  0
    0.6240   -0.5698    1.7832 H   0  0  0  0  0  0  0  0  0  0  0  0
   -0.5979    2.4869   -1.8752 H   0  0  0  0  0  0  0  0  0  0  0  0
    0.3883    1.1682   -2.5030 H   0  0  0  0  0  0  0  0  0  0  0  0
    1.1159    2.6451   -1.9520 H   0  0  0  0  0  0  0  0  0  0  0  0
    5.9158    0.0229    1.6101 H   0  0  0  0  0  0  0  0  0  0  0  0
    4.2072    0.0610    1.8966 H   0  0  0  0  0  0  0  0  0  0  0  0
   -2.9817    0.7357   -1.8923 H   0  0  0  0  0  0  0  0  0  0  0  0
   -2.6342   -0.9500   -2.2670 H   0  0  0  0  0  0  0  0  0  0  0  0
   -1.4210    0.2467   -2.5447 H   0  0  0  0  0  0  0  0  0  0  0  0
   -3.8574    2.6468    1.2176 H   0  0  0  0  0  0  0  0  0  0  0  0
   -2.8602    1.6364    2.2502 H   0  0  0  0  0  0  0  0  0  0  0  0
    2.9956    3.1801   -1.9050 H   0  0  0  0  0  0  0  0  0  0  0  0
    4.4386    2.2128   -2.2029 H   0  0  0  0  0  0  0  0  0  0  0  0
    4.4798    3.5608   -1.0613 H   0  0  0  0  0  0  0  0  0  0  0  0
   -3.0129   -2.6475   -0.4163 H   0  0  0  0  0  0  0  0  0  0  0  0
   -3.7682   -2.5196    1.1533 H   0  0  0  0  0  0  0  0  0  0  0  0
    6.8460   -1.8060    0.2678 H   0  0  0  0  0  0  0  0  0  0  0  0
    6.0935   -2.1797   -1.2855 H   0  0  0  0  0  0  0  0  0  0  0  0
    6.6632   -0.5445   -0.9571 H   0  0  0  0  0  0  0  0  0  0  0  0
   -5.5194   -2.8659   -0.3325 H   0  0  0  0  0  0  0  0  0  0  0  0
   -6.5147    2.0726    0.1228 H   0  0  0  0  0  0  0  0  0  0  0  0
   -5.7986    2.2427    1.7410 H   0  0  0  0  0  0  0  0  0  0  0  0
   -7.1037    1.1220    1.5005 H   0  0  0  0  0  0  0  0  0  0  0  0
   -5.8412   -1.6869   -2.1878 H   0  0  0  0  0  0  0  0  0  0  0  0
    3.9041   -4.1331    0.3718 H   0  0  0  0  0  0  0  0  0  0  0  0
  1 30  1  0  0  0  0
  1 76  1  0  0  0  0
  2 31  1  0  0  0  0
  2 77  1  0  0  0  0
  3 31  2  0  0  0  0
  4 32  2  0  0  0  0
  5  6  1  0  0  0  0
  5  8  1  0  0  0  0
  5 11  1  0  0  0  0
  5 19  1  0  0  0  0
  6  7  1  0  0  0  0
  6 12  1  0  0  0  0
  6 20  1  0  0  0  0
  7  9  1  0  0  0  0
  7 17  1  0  0  0  0
  7 34  1  0  0  0  0
  8 10  1  0  0  0  0
  8 16  1  0  0  0  0
  8 35  1  0  0  0  0
  9 13  1  0  0  0  0
  9 15  1  0  0  0  0
  9 23  1  0  0  0  0
 10 14  1  0  0  0  0
 10 18  1  0  0  0  0
 10 25  1  0  0  0  0
 11 13  1  0  0  0  0
 11 36  1  0  0  0  0
 11 37  1  0  0  0  0
 12 14  1  0  0  0  0
 12 38  1  0  0  0  0
 12 39  1  0  0  0  0
 13 40  1  0  0  0  0
 13 41  1  0  0  0  0
 14 42  1  0  0  0  0
 14 43  1  0  0  0  0
 15 26  1  0  0  0  0
 15 27  1  0  0  0  0
 15 44  1  0  0  0  0
 16 21  1  0  0  0  0
 16 45  1  0  0  0  0
 16 46  1  0  0  0  0
 17 24  1  0  0  0  0
 17 47  1  0  0  0  0
 17 48  1  0  0  0  0
 18 22  1  0  0  0  0
 18 49  1  0  0  0  0
 18 50  1  0  0  0  0
 19 51  1  0  0  0  0
 19 52  1  0  0  0  0
 19 53  1  0  0  0  0
 20 54  1  0  0  0  0
 20 55  1  0  0  0  0
 20 56  1  0  0  0  0
 21 22  1  0  0  0  0
 21 28  1  0  0  0  0
 21 31  1  0  0  0  0
 22 57  1  0  0  0  0
 22 58  1  0  0  0  0
 23 59  1  0  0  0  0
 23 60  1  0  0  0  0
 23 61  1  0  0  0  0
 24 26  1  0  0  0  0
 24 62  1  0  0  0  0
 24 63  1  0  0  0  0
 25 64  1  0  0  0  0
 25 65  1  0  0  0  0
 25 66  1  0  0  0  0
 26 29  2  0  0  0  0
 27 30  1  0  0  0  0
 27 67  1  0  0  0  0
 27 68  1  0  0  0  0
 28 69  1  0  0  0  0
 28 70  1  0  0  0  0
 28 71  1  0  0  0  0
 29 32  1  0  0  0  0
 29 33  1  0  0  0  0
 30 32  1  0  0  0  0
 30 72  1  0  0  0  0
 33 73  1  0  0  0  0
 33 74  1  0  0  0  0
 33 75  1  0  0  0  0
M  END
> <PUBCHEM_COMPOUND_CID>
101707493

> <PUBCHEM_CONFORMER_RMSD>
0.8

> <PUBCHEM_CONFORMER_DIVERSEORDER>
1

> <PUBCHEM_MMFF94_PARTIAL_CHARGES>
15
1 -0.68
15 0.14
2 -0.65
21 0.06
24 0.14
26 -0.28
29 -0.12
3 -0.57
30 0.34
31 0.66
32 0.49
33 0.14
4 -0.57
76 0.4
77 0.5

> <PUBCHEM_EFFECTIVE_ROTOR_COUNT>
3.4

> <PUBCHEM_PHARMACOPHORE_FEATURES>
11
1 1 acceptor
1 1 donor
1 2 acceptor
1 3 acceptor
1 4 acceptor
3 2 3 31 anion
6 15 26 27 29 30 32 rings
6 5 6 7 9 11 13 rings
6 5 6 8 10 12 14 rings
6 7 9 15 17 24 26 rings
6 8 10 16 18 21 22 rings

> <PUBCHEM_HEAVY_ATOM_COUNT>
33

> <PUBCHEM_ATOM_DEF_STEREO_COUNT>
9

> <PUBCHEM_ATOM_UDEF_STEREO_COUNT>
0

> <PUBCHEM_BOND_DEF_STEREO_COUNT>
0

> <PUBCHEM_BOND_UDEF_STEREO_COUNT>
0

> <PUBCHEM_ISOTOPIC_ATOM_COUNT>
0

> <PUBCHEM_COMPONENT_COUNT>
1

> <PUBCHEM_CACTVS_TAUTO_COUNT>
5

> <PUBCHEM_CONFORMER_ID>
060FEEE500000001

> <PUBCHEM_MMFF94_ENERGY>
162.1523

> <PUBCHEM_FEATURE_SELFOVERLAP>
55.953

> <PUBCHEM_SHAPE_FINGERPRINT>
10554248 39 18408035213430892125
11456790 92 18200609033937625489
11578080 2 16270224093647680570
11719270 70 17988925548703804439
11756154 67 17909275676684674830
12107183 9 18124604076321608009
12166972 35 18260833726112094317
12236239 1 18411422821429993977
12422481 6 18059576836956577327
12596602 18 17846778533427695786
12633257 1 18271254819962991809
12788726 201 17632031792299900824
13140716 1 18271243803456500736
13224815 77 18187362151509598172
13533116 47 18410575119028124697
1361 2 18408887330563548426
13782708 43 17385722478647236011
13785724 45 18055081956372001622
14341114 176 18412830187338400009
14347332 77 18411134719482217353
14955137 171 18059860515567976040
15001296 14 18260545657970220339
15064986 96 17202483283027815526
15183329 4 18408324380625431239
15196674 1 18342745143342105273
15250474 111 18341046427588788127
15788980 27 17676205771082317301
15927050 60 17910673495307341334
17349148 13 18412830200655708023
17492 89 18267302024406710090
17857418 61 18411138030442943355
1813 80 17603588517278822060
1979834 28 17203335494084178286
20028762 73 18272933816884065910
20511986 3 18342448266396302481
20691752 17 17749112188508539728
21033648 29 16660635276677081159
21267235 1 18341618092763699206
21421861 104 18261101977316588602
21703447 108 16910576453039817651
21792934 111 18201442481057792977
21859007 373 17825667751698878877
23522609 53 18122940639598893081
23559900 14 18272936002894980665
23569914 152 16813715710673023519
23569943 247 17896033239985494915
25147074 1 18341344339400013617
3004659 81 18410579483105248392
335352 9 18341618092494784453
3411729 13 17058920260047172696
345986 75 18267293253993295552
34797466 226 15984552216387057649
350125 39 18411984641485198084
3633792 109 18260535724697080711
3680242 22 18341623581241241433
397830 11 14117223044823612055
4073 2 18189622824372062147
4340502 62 13326854422475598420
460360 51 18335695001522474724
46194498 28 17458062707603569412
5104073 3 18272097119052916385
513202 73 17822008645562581709
6086070 43 18341597210522365045
8509985 295 18272933817020611544

> <PUBCHEM_SHAPE_MULTIPOLES>
655.65
14.9
3.05
1.42
10.14
0.02
-0.23
5.46
2.15
-2.43
0.17
-0.25
-0.03
-1.83

> <PUBCHEM_SHAPE_SELFOVERLAP>
1399.095

> <PUBCHEM_SHAPE_VOLUME>
355

> <PUBCHEM_COORDINATE_TYPE>
2
5
10

$$$$
