158477
  -OEChem-09122010153D

 79 84  0     1  0  0  0  0  0999 V2000
    5.3418   -0.6516   -1.1693 O   0  0  0  0  0  0  0  0  0  0  0  0
   -7.1185    1.4932   -0.7660 O   0  0  0  0  0  0  0  0  0  0  0  0
    5.3174    1.1975   -2.5315 O   0  0  0  0  0  0  0  0  0  0  0  0
   -0.9005   -0.9954    0.2125 C   0  0  2  0  0  0  0  0  0  0  0  0
   -1.5883    0.3838    0.5503 C   0  0  1  0  0  0  0  0  0  0  0  0
    0.6463   -0.7094   -0.2433 C   0  0  1  0  0  0  0  0  0  0  0  0
   -3.1778    0.3918    0.7009 C   0  0  2  0  0  0  0  0  0  0  0  0
   -3.7693   -0.3122   -0.5758 C   0  0  1  0  0  0  0  0  0  0  0  0
    2.8827    0.2535    0.8391 C   0  0  2  0  0  0  0  0  0  0  0  0
    3.6146   -1.1033    0.5564 C   0  0  1  0  0  0  0  0  0  0  0  0
    1.3524    0.2115    0.7676 C   0  0  0  0  0  0  0  0  0  0  0  0
   -1.6949   -1.7119   -0.9152 C   0  0  0  0  0  0  0  0  0  0  0  0
    1.4277   -2.0494   -0.3879 C   0  0  0  0  0  0  0  0  0  0  0  0
   -3.2120   -1.7431   -0.7160 C   0  0  0  0  0  0  0  0  0  0  0  0
   -5.3222   -0.1780   -0.7869 C   0  0  0  0  0  0  0  0  0  0  0  0
   -0.8355    1.1087    1.6861 C   0  0  0  0  0  0  0  0  0  0  0  0
    2.9325   -1.8770   -0.5950 C   0  0  0  0  0  0  0  0  0  0  0  0
   -3.6657    1.8732    0.7024 C   0  0  0  0  0  0  0  0  0  0  0  0
    5.1312   -0.8764    0.2397 C   0  0  2  0  0  0  0  0  0  0  0  0
    3.4707    1.4786    0.0889 C   0  0  0  0  0  0  0  0  0  0  0  0
   -0.9125   -1.9376    1.4537 C   0  0  0  0  0  0  0  0  0  0  0  0
    0.6557    1.0002    1.6092 C   0  0  0  0  0  0  0  0  0  0  0  0
    4.9983    1.4040   -0.1092 C   0  0  1  0  0  0  0  0  0  0  0  0
    0.7111    0.0078   -1.6256 C   0  0  0  0  0  0  0  0  0  0  0  0
   -5.7014    1.3303   -0.7116 C   0  0  2  0  0  0  0  0  0  0  0  0
   -3.6567   -0.2536    2.0259 C   0  0  0  0  0  0  0  0  0  0  0  0
   -5.1746    2.0386    0.5326 C   0  0  0  0  0  0  0  0  0  0  0  0
    5.6554    0.4131    0.8416 C   0  0  0  0  0  0  0  0  0  0  0  0
    3.5502   -1.9576    1.8528 C   0  0  0  0  0  0  0  0  0  0  0  0
   -6.1637   -1.0237    0.1901 C   0  0  0  0  0  0  0  0  0  0  0  0
   -5.7016   -0.6712   -2.2119 C   0  0  0  0  0  0  0  0  0  0  0  0
    5.2459    0.6920   -1.4234 C   0  0  0  0  0  0  0  0  0  0  0  0
    5.6613    2.7733   -0.0813 C   0  0  0  0  0  0  0  0  0  0  0  0
   -1.4227    1.0111   -0.3361 H   0  0  0  0  0  0  0  0  0  0  0  0
   -3.3438    0.2431   -1.4292 H   0  0  0  0  0  0  0  0  0  0  0  0
    3.1117    0.4742    1.8955 H   0  0  0  0  0  0  0  0  0  0  0  0
   -1.3350   -2.7401   -1.0424 H   0  0  0  0  0  0  0  0  0  0  0  0
   -1.5309   -1.2152   -1.8755 H   0  0  0  0  0  0  0  0  0  0  0  0
    1.0284   -2.6217   -1.2346 H   0  0  0  0  0  0  0  0  0  0  0  0
    1.2976   -2.6885    0.4876 H   0  0  0  0  0  0  0  0  0  0  0  0
   -3.6358   -2.2385   -1.5948 H   0  0  0  0  0  0  0  0  0  0  0  0
   -3.4731   -2.3743    0.1371 H   0  0  0  0  0  0  0  0  0  0  0  0
   -1.1265    0.7344    2.6705 H   0  0  0  0  0  0  0  0  0  0  0  0
   -1.0899    2.1746    1.6671 H   0  0  0  0  0  0  0  0  0  0  0  0
    3.3903   -2.8703   -0.6922 H   0  0  0  0  0  0  0  0  0  0  0  0
    3.0975   -1.3822   -1.5571 H   0  0  0  0  0  0  0  0  0  0  0  0
   -3.1743    2.4225   -0.1117 H   0  0  0  0  0  0  0  0  0  0  0  0
   -3.3682    2.3707    1.6334 H   0  0  0  0  0  0  0  0  0  0  0  0
    5.7415   -1.7365    0.5351 H   0  0  0  0  0  0  0  0  0  0  0  0
    2.9772    1.6264   -0.8770 H   0  0  0  0  0  0  0  0  0  0  0  0
    3.2267    2.3749    0.6765 H   0  0  0  0  0  0  0  0  0  0  0  0
   -0.6136   -2.9571    1.1882 H   0  0  0  0  0  0  0  0  0  0  0  0
   -0.2436   -1.5956    2.2486 H   0  0  0  0  0  0  0  0  0  0  0  0
   -1.8997   -2.0501    1.8943 H   0  0  0  0  0  0  0  0  0  0  0  0
    1.1952    1.6301    2.3139 H   0  0  0  0  0  0  0  0  0  0  0  0
    0.1506    0.9460   -1.6450 H   0  0  0  0  0  0  0  0  0  0  0  0
    1.7337    0.2631   -1.9147 H   0  0  0  0  0  0  0  0  0  0  0  0
    0.3402   -0.6279   -2.4351 H   0  0  0  0  0  0  0  0  0  0  0  0
   -5.2917    1.8413   -1.5932 H   0  0  0  0  0  0  0  0  0  0  0  0
   -3.8357   -1.3264    1.9408 H   0  0  0  0  0  0  0  0  0  0  0  0
   -2.9539   -0.1052    2.8474 H   0  0  0  0  0  0  0  0  0  0  0  0
   -4.5930    0.1763    2.3887 H   0  0  0  0  0  0  0  0  0  0  0  0
   -5.7182    1.7010    1.4214 H   0  0  0  0  0  0  0  0  0  0  0  0
   -5.4083    3.1091    0.4610 H   0  0  0  0  0  0  0  0  0  0  0  0
    5.4024    0.5578    1.8956 H   0  0  0  0  0  0  0  0  0  0  0  0
    6.7488    0.4527    0.7472 H   0  0  0  0  0  0  0  0  0  0  0  0
    3.9523   -2.9626    1.6816 H   0  0  0  0  0  0  0  0  0  0  0  0
    4.1406   -1.5019    2.6563 H   0  0  0  0  0  0  0  0  0  0  0  0
    2.5284   -2.0664    2.2296 H   0  0  0  0  0  0  0  0  0  0  0  0
   -5.8154   -2.0606    0.2283 H   0  0  0  0  0  0  0  0  0  0  0  0
   -6.1623   -0.6276    1.2056 H   0  0  0  0  0  0  0  0  0  0  0  0
   -7.2150   -1.0562   -0.1212 H   0  0  0  0  0  0  0  0  0  0  0  0
   -5.5907   -1.7553   -2.3138 H   0  0  0  0  0  0  0  0  0  0  0  0
   -6.7464   -0.4411   -2.4508 H   0  0  0  0  0  0  0  0  0  0  0  0
   -5.0787   -0.1936   -2.9764 H   0  0  0  0  0  0  0  0  0  0  0  0
    5.1956    3.4516   -0.8051 H   0  0  0  0  0  0  0  0  0  0  0  0
    5.5802    3.2289    0.9114 H   0  0  0  0  0  0  0  0  0  0  0  0
    6.7249    2.7085   -0.3378 H   0  0  0  0  0  0  0  0  0  0  0  0
   -7.3057    2.4474   -0.7622 H   0  0  0  0  0  0  0  0  0  0  0  0
  1 19  1  0  0  0  0
  1 32  1  0  0  0  0
  2 25  1  0  0  0  0
  2 79  1  0  0  0  0
  3 32  2  0  0  0  0
  4  5  1  0  0  0  0
  4  6  1  0  0  0  0
  4 12  1  0  0  0  0
  4 21  1  0  0  0  0
  5  7  1  0  0  0  0
  5 16  1  0  0  0  0
  5 34  1  0  0  0  0
  6 11  1  0  0  0  0
  6 13  1  0  0  0  0
  6 24  1  0  0  0  0
  7  8  1  0  0  0  0
  7 18  1  0  0  0  0
  7 26  1  0  0  0  0
  8 14  1  0  0  0  0
  8 15  1  0  0  0  0
  8 35  1  0  0  0  0
  9 10  1  0  0  0  0
  9 11  1  0  0  0  0
  9 20  1  0  0  0  0
  9 36  1  0  0  0  0
 10 17  1  0  0  0  0
 10 19  1  0  0  0  0
 10 29  1  0  0  0  0
 11 22  2  0  0  0  0
 12 14  1  0  0  0  0
 12 37  1  0  0  0  0
 12 38  1  0  0  0  0
 13 17  1  0  0  0  0
 13 39  1  0  0  0  0
 13 40  1  0  0  0  0
 14 41  1  0  0  0  0
 14 42  1  0  0  0  0
 15 25  1  0  0  0  0
 15 30  1  0  0  0  0
 15 31  1  0  0  0  0
 16 22  1  0  0  0  0
 16 43  1  0  0  0  0
 16 44  1  0  0  0  0
 17 45  1  0  0  0  0
 17 46  1  0  0  0  0
 18 27  1  0  0  0  0
 18 47  1  0  0  0  0
 18 48  1  0  0  0  0
 19 28  1  0  0  0  0
 19 49  1  0  0  0  0
 20 23  1  0  0  0  0
 20 50  1  0  0  0  0
 20 51  1  0  0  0  0
 21 52  1  0  0  0  0
 21 53  1  0  0  0  0
 21 54  1  0  0  0  0
 22 55  1  0  0  0  0
 23 28  1  0  0  0  0
 23 32  1  0  0  0  0
 23 33  1  0  0  0  0
 24 56  1  0  0  0  0
 24 57  1  0  0  0  0
 24 58  1  0  0  0  0
 25 27  1  0  0  0  0
 25 59  1  0  0  0  0
 26 60  1  0  0  0  0
 26 61  1  0  0  0  0
 26 62  1  0  0  0  0
 27 63  1  0  0  0  0
 27 64  1  0  0  0  0
 28 65  1  0  0  0  0
 28 66  1  0  0  0  0
 29 67  1  0  0  0  0
 29 68  1  0  0  0  0
 29 69  1  0  0  0  0
 30 70  1  0  0  0  0
 30 71  1  0  0  0  0
 30 72  1  0  0  0  0
 31 73  1  0  0  0  0
 31 74  1  0  0  0  0
 31 75  1  0  0  0  0
 33 76  1  0  0  0  0
 33 77  1  0  0  0  0
 33 78  1  0  0  0  0
M  END
> <PUBCHEM_COMPOUND_CID>
158477

> <PUBCHEM_CONFORMER_RMSD>
0.8

> <PUBCHEM_CONFORMER_DIVERSEORDER>
1

> <PUBCHEM_MMFF94_PARTIAL_CHARGES>
14
1 -0.43
11 -0.28
16 0.14
19 0.28
2 -0.68
22 -0.29
23 0.06
25 0.28
3 -0.57
32 0.66
55 0.15
6 0.14
79 0.4
9 0.14

> <PUBCHEM_EFFECTIVE_ROTOR_COUNT>
2.4

> <PUBCHEM_PHARMACOPHORE_FEATURES>
9
1 2 acceptor
1 2 donor
1 3 acceptor
3 15 30 31 hydrophobe
6 4 5 6 11 16 22 rings
6 4 5 7 8 12 14 rings
6 6 9 10 11 13 17 rings
6 7 8 15 18 25 27 rings
8 1 9 10 19 20 23 28 32 rings

> <PUBCHEM_HEAVY_ATOM_COUNT>
33

> <PUBCHEM_ATOM_DEF_STEREO_COUNT>
10

> <PUBCHEM_ATOM_UDEF_STEREO_COUNT>
0

> <PUBCHEM_BOND_DEF_STEREO_COUNT>
0

> <PUBCHEM_BOND_UDEF_STEREO_COUNT>
0

> <PUBCHEM_ISOTOPIC_ATOM_COUNT>
0

> <PUBCHEM_COMPONENT_COUNT>
1

> <PUBCHEM_CACTVS_TAUTO_COUNT>
1

> <PUBCHEM_CONFORMER_ID>
00026B0D00000001

> <PUBCHEM_MMFF94_ENERGY>
153.6098

> <PUBCHEM_FEATURE_SELFOVERLAP>
45.722

> <PUBCHEM_SHAPE_FINGERPRINT>
10 15 14129062516931881269
10554248 39 18265879290366594847
10595046 47 18342172263355503001
10670039 82 17774734073542280872
10906281 52 17775298148898394371
11578080 2 14346950593410129884
11646440 116 14851606552965130821
11963148 33 17274811467814754343
12166972 35 18272369806337186913
12236239 1 18335416863798617075
12422481 6 11242239749560244000
12596602 18 18040714762516948691
12788726 201 18271527485803562392
13224815 77 17632861919320242610
13533116 47 17168698623046609458
13583140 156 17967538990659573891
13690498 29 17629192986326050055
13782708 43 13758356665426557397
14347332 77 12535357761432516874
14528608 73 18343021099143285892
14790565 3 18413109437516659497
14840074 17 18041002846941919517
15082195 135 18060420222720959576
15183329 4 18202001023251349661
15788980 27 18343303651935099035
17349148 13 16271933726427473531
18222031 100 16630804426134184784
18608769 82 18340207513972251867
18681886 176 17917704713237328842
19319366 153 18412536618209362270
1979834 28 13623526831841374416
19958102 18 16415482636145407007
20511986 3 18337378409611402582
21033648 29 17386006212613226904
21130935 74 11241967074988061452
21641784 216 18341906159867142140
22393880 68 17846210107026818686
23522609 53 17559701553537446121
23559900 14 17631999949364356313
23569914 152 14974915480941420453
23569914 2 17101101876242347317
23569943 247 14979134461522208231
2838139 119 18335135371542070249
3004659 81 18343016654174031058
34797466 226 17131835408313088824
350125 39 18202564003891683755
392239 28 14779544629763893596
394071 54 16371016221534242348
397830 11 15936991715725316169
4058900 60 18336835203713084851
4073 2 17967817192570888467
4258327 124 17169283721824596735
4340502 62 17822006523653656426
504579 68 18411426098621643654
5104073 3 11891329863776349084
59755656 215 17275103903631691407
70251023 43 17605827011679638778
86090 222 13901643977298168444

> <PUBCHEM_SHAPE_MULTIPOLES>
661.52
16.38
2.29
1.79
5.05
0.27
0.21
5.85
5.5
-0.61
-0.12
-0.23
-0.1
-1.18

> <PUBCHEM_SHAPE_SELFOVERLAP>
1430.424

> <PUBCHEM_SHAPE_VOLUME>
359.5

> <PUBCHEM_COORDINATE_TYPE>
2
5
10

$$$$
