122391444
  -OEChem-09122011053D

 53 58  0     1  0  0  0  0  0999 V2000
    0.8711    2.6625   -0.7540 O   0  0  0  0  0  0  0  0  0  0  0  0
    2.6433   -1.5107   -1.1110 O   0  0  0  0  0  0  0  0  0  0  0  0
    1.1856    0.2092   -2.3363 O   0  0  0  0  0  0  0  0  0  0  0  0
    3.6614    1.2074   -0.8586 O   0  0  0  0  0  0  0  0  0  0  0  0
    4.2390    0.2835    1.8140 O   0  0  0  0  0  0  0  0  0  0  0  0
   -4.9439    0.1096    1.4631 O   0  0  0  0  0  0  0  0  0  0  0  0
   -5.7530   -1.3748   -0.0995 O   0  0  0  0  0  0  0  0  0  0  0  0
    1.3306    1.4075   -0.2434 C   0  0  2  0  0  0  0  0  0  0  0  0
    0.7895    0.1591   -0.9537 C   0  0  1  0  0  0  0  0  0  0  0  0
   -0.8134    0.0970   -0.9595 C   0  0  2  0  0  0  0  0  0  0  0  0
    0.4076    2.3114    0.5582 C   0  0  2  0  0  0  0  0  0  0  0  0
    1.4578   -1.1008   -0.3274 C   0  0  2  0  0  0  0  0  0  0  0  0
    2.3828   -1.0375    0.9541 C   0  0  2  0  0  0  0  0  0  0  0  0
    2.7605    1.3974    0.2237 C   0  0  1  0  0  0  0  0  0  0  0  0
   -1.3586    0.5501    0.4428 C   0  0  1  0  0  0  0  0  0  0  0  0
   -1.0495    2.0328    0.6863 C   0  0  0  0  0  0  0  0  0  0  0  0
    2.9018    0.3587    1.3390 C   0  0  2  0  0  0  0  0  0  0  0  0
    3.2627   -2.0197    0.1039 C   0  0  2  0  0  0  0  0  0  0  0  0
   -1.3925   -1.3323   -1.2696 C   0  0  0  0  0  0  0  0  0  0  0  0
   -1.3674    1.0183   -2.1058 C   0  0  0  0  0  0  0  0  0  0  0  0
   -2.8184    0.2283    0.6216 C   0  0  0  0  0  0  0  0  0  0  0  0
    1.7827   -1.7455    2.1737 C   0  0  0  0  0  0  0  0  0  0  0  0
   -2.9328   -1.3846   -1.2974 C   0  0  0  0  0  0  0  0  0  0  0  0
   -3.4894   -0.6177   -0.1579 C   0  0  0  0  0  0  0  0  0  0  0  0
    4.7746   -1.9568    0.0279 C   0  0  0  0  0  0  0  0  0  0  0  0
   -3.6797    0.7451    1.7019 C   0  0  0  0  0  0  0  0  0  0  0  0
   -4.8524   -0.6974    0.3640 C   0  0  0  0  0  0  0  0  0  0  0  0
    0.7984    2.8890    1.3857 H   0  0  0  0  0  0  0  0  0  0  0  0
    0.7994   -1.9703   -0.3056 H   0  0  0  0  0  0  0  0  0  0  0  0
    3.0345    2.3732    0.6457 H   0  0  0  0  0  0  0  0  0  0  0  0
   -0.8277   -0.0302    1.2115 H   0  0  0  0  0  0  0  0  0  0  0  0
   -1.6252    2.6859    0.0198 H   0  0  0  0  0  0  0  0  0  0  0  0
   -1.3537    2.3033    1.7055 H   0  0  0  0  0  0  0  0  0  0  0  0
    2.3001    0.7233    2.1827 H   0  0  0  0  0  0  0  0  0  0  0  0
    2.9796   -3.0756    0.2364 H   0  0  0  0  0  0  0  0  0  0  0  0
   -1.0979   -2.0379   -0.4856 H   0  0  0  0  0  0  0  0  0  0  0  0
   -0.9975   -1.7184   -2.2164 H   0  0  0  0  0  0  0  0  0  0  0  0
   -0.8841    1.9955   -2.1481 H   0  0  0  0  0  0  0  0  0  0  0  0
   -2.4391    1.2155   -2.0036 H   0  0  0  0  0  0  0  0  0  0  0  0
   -1.2203    0.5534   -3.0880 H   0  0  0  0  0  0  0  0  0  0  0  0
    2.5411   -1.8873    2.9511 H   0  0  0  0  0  0  0  0  0  0  0  0
    1.3801   -2.7318    1.9182 H   0  0  0  0  0  0  0  0  0  0  0  0
    0.9612   -1.1608    2.6013 H   0  0  0  0  0  0  0  0  0  0  0  0
    0.9601   -0.6451   -2.7420 H   0  0  0  0  0  0  0  0  0  0  0  0
   -3.2544   -2.4312   -1.2458 H   0  0  0  0  0  0  0  0  0  0  0  0
   -3.3147   -0.9794   -2.2409 H   0  0  0  0  0  0  0  0  0  0  0  0
    5.1316   -0.9700   -0.2784 H   0  0  0  0  0  0  0  0  0  0  0  0
    5.1502   -2.6807   -0.7030 H   0  0  0  0  0  0  0  0  0  0  0  0
    5.2200   -2.2022    0.9970 H   0  0  0  0  0  0  0  0  0  0  0  0
    3.4935    1.9129   -1.5065 H   0  0  0  0  0  0  0  0  0  0  0  0
    4.5172    1.1830    2.0565 H   0  0  0  0  0  0  0  0  0  0  0  0
   -3.3196    0.4595    2.6943 H   0  0  0  0  0  0  0  0  0  0  0  0
   -3.8185    1.8284    1.6491 H   0  0  0  0  0  0  0  0  0  0  0  0
  1  8  1  0  0  0  0
  1 11  1  0  0  0  0
  2 12  1  0  0  0  0
  2 18  1  0  0  0  0
  3  9  1  0  0  0  0
  3 44  1  0  0  0  0
  4 14  1  0  0  0  0
  4 50  1  0  0  0  0
  5 17  1  0  0  0  0
  5 51  1  0  0  0  0
  6 26  1  0  0  0  0
  6 27  1  0  0  0  0
  7 27  2  0  0  0  0
  8  9  1  0  0  0  0
  8 11  1  0  0  0  0
  8 14  1  0  0  0  0
  9 10  1  0  0  0  0
  9 12  1  0  0  0  0
 10 15  1  0  0  0  0
 10 19  1  0  0  0  0
 10 20  1  0  0  0  0
 11 16  1  0  0  0  0
 11 28  1  0  0  0  0
 12 13  1  0  0  0  0
 12 29  1  0  0  0  0
 13 17  1  0  0  0  0
 13 18  1  0  0  0  0
 13 22  1  0  0  0  0
 14 17  1  0  0  0  0
 14 30  1  0  0  0  0
 15 16  1  0  0  0  0
 15 21  1  0  0  0  0
 15 31  1  0  0  0  0
 16 32  1  0  0  0  0
 16 33  1  0  0  0  0
 17 34  1  0  0  0  0
 18 25  1  0  0  0  0
 18 35  1  0  0  0  0
 19 23  1  0  0  0  0
 19 36  1  0  0  0  0
 19 37  1  0  0  0  0
 20 38  1  0  0  0  0
 20 39  1  0  0  0  0
 20 40  1  0  0  0  0
 21 24  2  0  0  0  0
 21 26  1  0  0  0  0
 22 41  1  0  0  0  0
 22 42  1  0  0  0  0
 22 43  1  0  0  0  0
 23 24  1  0  0  0  0
 23 45  1  0  0  0  0
 23 46  1  0  0  0  0
 24 27  1  0  0  0  0
 25 47  1  0  0  0  0
 25 48  1  0  0  0  0
 25 49  1  0  0  0  0
 26 52  1  0  0  0  0
 26 53  1  0  0  0  0
M  END
> <PUBCHEM_COMPOUND_CID>
122391444

> <PUBCHEM_CONFORMER_RMSD>
0.6

> <PUBCHEM_CONFORMER_DIVERSEORDER>
1

> <PUBCHEM_MMFF94_PARTIAL_CHARGES>
25
1 -0.3
11 -0.05
12 0.26
14 0.38
15 0.14
16 0.09
17 0.28
18 0.26
2 -0.52
21 -0.28
23 0.14
24 -0.12
26 0.42
27 0.71
28 0.1
3 -0.68
4 -0.68
44 0.4
5 -0.68
50 0.4
51 0.4
6 -0.43
7 -0.57
8 -0.04
9 0.38

> <PUBCHEM_EFFECTIVE_ROTOR_COUNT>
2

> <PUBCHEM_PHARMACOPHORE_FEATURES>
14
1 1 acceptor
1 2 acceptor
1 3 acceptor
1 3 donor
1 4 acceptor
1 4 donor
1 5 acceptor
1 5 donor
1 7 acceptor
4 2 12 13 18 rings
5 6 21 24 26 27 rings
6 10 15 19 21 23 24 rings
6 8 9 12 13 14 17 rings
7 1 8 9 10 11 15 16 rings

> <PUBCHEM_HEAVY_ATOM_COUNT>
27

> <PUBCHEM_ATOM_DEF_STEREO_COUNT>
10

> <PUBCHEM_ATOM_UDEF_STEREO_COUNT>
0

> <PUBCHEM_BOND_DEF_STEREO_COUNT>
0

> <PUBCHEM_BOND_UDEF_STEREO_COUNT>
0

> <PUBCHEM_ISOTOPIC_ATOM_COUNT>
0

> <PUBCHEM_COMPONENT_COUNT>
1

> <PUBCHEM_CACTVS_TAUTO_COUNT>
1

> <PUBCHEM_CONFORMER_ID>
074B8B9400000001

> <PUBCHEM_MMFF94_ENERGY>
83.5996

> <PUBCHEM_FEATURE_SELFOVERLAP>
71.758

> <PUBCHEM_SHAPE_FINGERPRINT>
10498660 4 10665232574902322635
10863032 1 17561084721789606586
11578080 2 18113890529304526773
11796584 16 17603583050038467067
12236239 1 18272655670485163201
12403259 327 15769768057086954626
12553582 1 18341607152690952380
12596599 1 18335704957452157523
12633257 1 18263914591678041874
12670546 177 13262399946874596683
12714826 92 17895469211688507815
12892183 10 17775562035535382091
13140716 1 18130787806788033207
13224815 77 18408881832482507075
13533116 47 18335987579722972323
13544653 18 18114179713788925553
13583140 156 17845635015639046097
13911987 19 15721400519934798038
13965767 371 17628099822712295217
14178342 30 17845076540725055574
14223421 5 18342168947456491560
14341114 328 18270394009579540944
14739800 52 17059482080059970976
14787075 74 18260832630995257680
14790565 3 18053383489990544288
15209289 33 18335987450330848730
15375462 189 18336258015784061651
16945 1 18201143434563122540
17349148 13 17561358509434221309
1813 80 18186520986390955396
18186145 218 10375870775214872689
20715895 44 17843696452702716201
20739085 24 18341619204511311076
20775530 9 17026551465973815915
21033648 29 17130128824501088507
21421861 104 18409459080498439361
21731516 1 18117546341426779218
21756936 100 15193847243082519946
22149856 69 16342605963003921275
22393880 68 10881391041642156963
2255824 54 18121218941770324421
23227448 37 13182153237825591547
23559900 14 17131011826901624725
345986 75 18264477400166347457
3737641 26 18122347870072527674
392239 28 17979878853066843256
4340502 62 17678192670134751137
474 4 18121785194601030109
5104073 3 17988375831803052899
6669772 16 16299816320113069670
7064713 232 17489315131490032475
7097593 13 18272930548534603463
7808743 9 15840693244516303136
7970288 3 18335983060690201691
8509985 295 18343868818856763457
9981440 41 16547204438465450936

> <PUBCHEM_SHAPE_MULTIPOLES>
514.56
8.85
2.29
1.84
5.81
0.53
0.07
-4.2
-3.02
-1.28
0.04
-0.04
-0.06
-0.67

> <PUBCHEM_SHAPE_SELFOVERLAP>
1141.749

> <PUBCHEM_SHAPE_VOLUME>
267.7

> <PUBCHEM_COORDINATE_TYPE>
2
5
10

$$$$
