101905232
  -OEChem-09122011033D

 72 76  0     1  0  0  0  0  0999 V2000
    0.5566   -0.4481    0.1056 O   0  0  0  0  0  0  0  0  0  0  0  0
    2.3889   -0.8960   -2.2067 O   0  0  0  0  0  0  0  0  0  0  0  0
    0.8803    1.3312   -1.9919 O   0  0  0  0  0  0  0  0  0  0  0  0
    3.3311   -0.9047    3.2765 O   0  0  0  0  0  0  0  0  0  0  0  0
    4.2295   -2.3509    1.1772 O   0  0  0  0  0  0  0  0  0  0  0  0
   -0.5004    2.0836    0.2717 O   0  0  0  0  0  0  0  0  0  0  0  0
    2.2812    1.7087    3.4393 O   0  0  0  0  0  0  0  0  0  0  0  0
    2.6970    3.4606    1.3584 O   0  0  0  0  0  0  0  0  0  0  0  0
   -1.5636   -2.4499    0.4271 O   0  0  0  0  0  0  0  0  0  0  0  0
    4.4980   -1.7221   -2.6607 O   0  0  0  0  0  0  0  0  0  0  0  0
   -1.3986    3.5102   -1.3039 O   0  0  0  0  0  0  0  0  0  0  0  0
   -1.7441   -0.7515    2.0056 O   0  0  0  0  0  0  0  0  0  0  0  0
   -5.1753   -0.2932   -0.8135 N   0  0  0  0  0  0  0  0  0  0  0  0
    1.8498    0.2020   -0.0643 C   0  0  1  0  0  0  0  0  0  0  0  0
    2.4458    0.3852    1.3747 C   0  0  2  0  0  0  0  0  0  0  0  0
    2.6977   -0.8412   -0.8181 C   0  0  1  0  0  0  0  0  0  0  0  0
    2.2135   -2.1156   -0.1362 C   0  0  1  0  0  0  0  0  0  0  0  0
    1.6466    1.5606   -0.7976 C   0  0  2  0  0  0  0  0  0  0  0  0
    2.4635   -0.9664    2.1472 C   0  0  1  0  0  0  0  0  0  0  0  0
    2.8123   -2.1899    1.2814 C   0  0  2  0  0  0  0  0  0  0  0  0
    0.7021   -1.8567   -0.1789 C   0  0  1  0  0  0  0  0  0  0  0  0
    1.6434    1.4332    2.1923 C   0  0  2  0  0  0  0  0  0  0  0  0
    0.8509    2.5752    0.0711 C   0  0  2  0  0  0  0  0  0  0  0  0
    1.4572    2.7683    1.4639 C   0  0  2  0  0  0  0  0  0  0  0  0
    2.9864    2.1559   -1.2695 C   0  0  0  0  0  0  0  0  0  0  0  0
   -0.1751   -2.6969    0.7411 C   0  0  0  0  0  0  0  0  0  0  0  0
    3.3860   -1.3587   -3.0195 C   0  0  0  0  0  0  0  0  0  0  0  0
   -1.5091    2.6121   -0.4802 C   0  0  0  0  0  0  0  0  0  0  0  0
   -2.8093    1.8830   -0.1636 C   0  0  2  0  0  0  0  0  0  0  0  0
    2.9217   -1.3606   -4.4443 C   0  0  0  0  0  0  0  0  0  0  0  0
   -2.1831   -1.4617    1.1187 C   0  0  0  0  0  0  0  0  0  0  0  0
   -2.8796    0.5621   -0.9742 C   0  0  1  0  0  0  0  0  0  0  0  0
   -3.5444   -1.3472    0.5939 C   0  0  0  0  0  0  0  0  0  0  0  0
   -3.9943    2.8303   -0.3652 C   0  0  0  0  0  0  0  0  0  0  0  0
   -3.8942   -0.4038   -0.3772 C   0  0  0  0  0  0  0  0  0  0  0  0
   -3.1276    0.7747   -2.4762 C   0  0  0  0  0  0  0  0  0  0  0  0
   -4.5176   -2.1971    1.1193 C   0  0  0  0  0  0  0  0  0  0  0  0
   -5.8242   -2.0922    0.6669 C   0  0  0  0  0  0  0  0  0  0  0  0
   -6.0990   -1.1324   -0.2901 C   0  0  0  0  0  0  0  0  0  0  0  0
    3.4836    0.7384    1.3067 H   0  0  0  0  0  0  0  0  0  0  0  0
    3.7660   -0.6393   -0.6753 H   0  0  0  0  0  0  0  0  0  0  0  0
    2.4736   -3.0134   -0.7079 H   0  0  0  0  0  0  0  0  0  0  0  0
    1.4602   -1.1215    2.5582 H   0  0  0  0  0  0  0  0  0  0  0  0
    2.4519   -3.0896    1.7941 H   0  0  0  0  0  0  0  0  0  0  0  0
    0.3318   -1.9882   -1.2047 H   0  0  0  0  0  0  0  0  0  0  0  0
    0.6545    1.0193    2.4266 H   0  0  0  0  0  0  0  0  0  0  0  0
    0.8164    3.5436   -0.4439 H   0  0  0  0  0  0  0  0  0  0  0  0
    0.7975    3.4005    2.0716 H   0  0  0  0  0  0  0  0  0  0  0  0
    2.8418    3.1691   -1.6626 H   0  0  0  0  0  0  0  0  0  0  0  0
    3.7392    2.2002   -0.4795 H   0  0  0  0  0  0  0  0  0  0  0  0
    3.4080    1.5782   -2.0991 H   0  0  0  0  0  0  0  0  0  0  0  0
    0.0036   -3.7622    0.5627 H   0  0  0  0  0  0  0  0  0  0  0  0
   -0.0029   -2.5041    1.8029 H   0  0  0  0  0  0  0  0  0  0  0  0
    0.7534    2.1871   -2.4361 H   0  0  0  0  0  0  0  0  0  0  0  0
    3.2877   -1.7654    3.7270 H   0  0  0  0  0  0  0  0  0  0  0  0
    4.3956   -3.1491    0.6471 H   0  0  0  0  0  0  0  0  0  0  0  0
    1.7123    2.3243    3.9323 H   0  0  0  0  0  0  0  0  0  0  0  0
    2.5223    4.3133    0.9251 H   0  0  0  0  0  0  0  0  0  0  0  0
   -2.7827    1.6530    0.9108 H   0  0  0  0  0  0  0  0  0  0  0  0
    3.7261   -1.7277   -5.0880 H   0  0  0  0  0  0  0  0  0  0  0  0
    2.6664   -0.3432   -4.7512 H   0  0  0  0  0  0  0  0  0  0  0  0
    2.0591   -2.0232   -4.5513 H   0  0  0  0  0  0  0  0  0  0  0  0
   -1.8962    0.0788   -0.9266 H   0  0  0  0  0  0  0  0  0  0  0  0
   -4.0760    3.1752   -1.4009 H   0  0  0  0  0  0  0  0  0  0  0  0
   -3.8758    3.7241    0.2584 H   0  0  0  0  0  0  0  0  0  0  0  0
   -4.9385    2.3558   -0.0832 H   0  0  0  0  0  0  0  0  0  0  0  0
   -4.1002    1.2338   -2.6807 H   0  0  0  0  0  0  0  0  0  0  0  0
   -3.1038   -0.1840   -3.0076 H   0  0  0  0  0  0  0  0  0  0  0  0
   -2.3541    1.4122   -2.9161 H   0  0  0  0  0  0  0  0  0  0  0  0
   -4.2677   -2.9336    1.8779 H   0  0  0  0  0  0  0  0  0  0  0  0
   -6.6043   -2.7373    1.0540 H   0  0  0  0  0  0  0  0  0  0  0  0
   -7.1054   -1.0054   -0.6756 H   0  0  0  0  0  0  0  0  0  0  0  0
  1 14  1  0  0  0  0
  1 21  1  0  0  0  0
  2 16  1  0  0  0  0
  2 27  1  0  0  0  0
  3 18  1  0  0  0  0
  3 54  1  0  0  0  0
  4 19  1  0  0  0  0
  4 55  1  0  0  0  0
  5 20  1  0  0  0  0
  5 56  1  0  0  0  0
  6 23  1  0  0  0  0
  6 28  1  0  0  0  0
  7 22  1  0  0  0  0
  7 57  1  0  0  0  0
  8 24  1  0  0  0  0
  8 58  1  0  0  0  0
  9 26  1  0  0  0  0
  9 31  1  0  0  0  0
 10 27  2  0  0  0  0
 11 28  2  0  0  0  0
 12 31  2  0  0  0  0
 13 35  1  0  0  0  0
 13 39  2  0  0  0  0
 14 15  1  0  0  0  0
 14 16  1  0  0  0  0
 14 18  1  0  0  0  0
 15 19  1  0  0  0  0
 15 22  1  0  0  0  0
 15 40  1  0  0  0  0
 16 17  1  0  0  0  0
 16 41  1  0  0  0  0
 17 20  1  0  0  0  0
 17 21  1  0  0  0  0
 17 42  1  0  0  0  0
 18 23  1  0  0  0  0
 18 25  1  0  0  0  0
 19 20  1  0  0  0  0
 19 43  1  0  0  0  0
 20 44  1  0  0  0  0
 21 26  1  0  0  0  0
 21 45  1  0  0  0  0
 22 24  1  0  0  0  0
 22 46  1  0  0  0  0
 23 24  1  0  0  0  0
 23 47  1  0  0  0  0
 24 48  1  0  0  0  0
 25 49  1  0  0  0  0
 25 50  1  0  0  0  0
 25 51  1  0  0  0  0
 26 52  1  0  0  0  0
 26 53  1  0  0  0  0
 27 30  1  0  0  0  0
 28 29  1  0  0  0  0
 29 32  1  0  0  0  0
 29 34  1  0  0  0  0
 29 59  1  0  0  0  0
 30 60  1  0  0  0  0
 30 61  1  0  0  0  0
 30 62  1  0  0  0  0
 31 33  1  0  0  0  0
 32 35  1  0  0  0  0
 32 36  1  0  0  0  0
 32 63  1  0  0  0  0
 33 35  2  0  0  0  0
 33 37  1  0  0  0  0
 34 64  1  0  0  0  0
 34 65  1  0  0  0  0
 34 66  1  0  0  0  0
 36 67  1  0  0  0  0
 36 68  1  0  0  0  0
 36 69  1  0  0  0  0
 37 38  2  0  0  0  0
 37 70  1  0  0  0  0
 38 39  1  0  0  0  0
 38 71  1  0  0  0  0
 39 72  1  0  0  0  0
M  END
> <PUBCHEM_COMPOUND_CID>
101905232

> <PUBCHEM_CONFORMER_RMSD>
0.8

> <PUBCHEM_CONFORMER_DIVERSEORDER>
1
8
6
7
4
5
3
2

> <PUBCHEM_MMFF94_PARTIAL_CHARGES>
42
1 -0.56
10 -0.57
11 -0.57
12 -0.57
13 -0.62
14 0.28
16 0.28
18 0.28
19 0.28
2 -0.43
20 0.28
21 0.28
22 0.28
23 0.28
24 0.28
26 0.28
27 0.66
28 0.66
29 0.06
3 -0.68
30 0.06
31 0.63
32 0.14
33 0.09
35 0.17
37 -0.15
38 -0.15
39 0.16
4 -0.68
5 -0.68
54 0.4
55 0.4
56 0.4
57 0.4
58 0.4
6 -0.43
7 -0.68
70 0.15
71 0.15
72 0.15
8 -0.68
9 -0.43

> <PUBCHEM_EFFECTIVE_ROTOR_COUNT>
4.4

> <PUBCHEM_PHARMACOPHORE_FEATURES>
18
1 1 acceptor
1 10 acceptor
1 11 acceptor
1 12 acceptor
1 13 acceptor
1 3 acceptor
1 3 donor
1 4 acceptor
1 4 donor
1 5 acceptor
1 5 donor
1 7 acceptor
1 7 donor
1 8 acceptor
1 8 donor
6 13 33 35 37 38 39 rings
6 14 15 18 22 23 24 rings
8 1 14 15 16 17 19 20 21 rings

> <PUBCHEM_HEAVY_ATOM_COUNT>
39

> <PUBCHEM_ATOM_DEF_STEREO_COUNT>
10

> <PUBCHEM_ATOM_UDEF_STEREO_COUNT>
3

> <PUBCHEM_BOND_DEF_STEREO_COUNT>
0

> <PUBCHEM_BOND_UDEF_STEREO_COUNT>
0

> <PUBCHEM_ISOTOPIC_ATOM_COUNT>
0

> <PUBCHEM_COMPONENT_COUNT>
1

> <PUBCHEM_CACTVS_TAUTO_COUNT>
60

> <PUBCHEM_CONFORMER_ID>
0612F35000000001

> <PUBCHEM_MMFF94_ENERGY>
140.0175

> <PUBCHEM_FEATURE_SELFOVERLAP>
91.416

> <PUBCHEM_SHAPE_FINGERPRINT>
10577160 103 18124350227455124388
107951 10 9263992343034156456
11488393 25 18131360717561989108
12166972 35 17023172782884897043
12422481 6 18410014309081676033
13140716 1 18336254657642356489
13224815 77 18411411843641096553
13402501 40 18264210390581687461
14251757 17 18193302804386670470
14395042 70 11768139795311546344
14725015 67 18262501612569081563
15484559 13 15741918909873630503
15664445 248 17314799713916884789
16114785 44 16831478759290804528
20600515 1 18193831540673016968
20764821 26 18260267408988345001
20775438 99 18056465386918667623
21033648 29 17985797420515827155
23559900 14 17821721745947328019
24941158 1 17060613395493045088
25222932 49 17899974134498770731
3052486 1 18115584829482829467
35225 105 14426227370189571696
376196 1 17548708825308740584
46194498 28 18130804376761383935
5081480 168 17774181044514654181
508706 21 18191568775818381177
513532 50 18270121364981867407
57527306 92 14744047253512170760
6823239 73 18341620291069419695

> <PUBCHEM_SHAPE_MULTIPOLES>
727.19
9.53
3.95
3.22
12.43
2.13
1.63
-4.99
1.62
-0.12
-0.6
-5.07
-0.67
2.32

> <PUBCHEM_SHAPE_SELFOVERLAP>
1578.173

> <PUBCHEM_SHAPE_VOLUME>
389.1

> <PUBCHEM_COORDINATE_TYPE>
2
5
10

$$$$
