44575701
  -OEChem-09122009533D

 79 84  0     1  0  0  0  0  0999 V2000
    5.3306    0.5811    1.2139 O   0  0  0  0  0  0  0  0  0  0  0  0
   -7.1253   -1.5342    0.5877 O   0  0  0  0  0  0  0  0  0  0  0  0
    5.2963   -1.3476    2.4610 O   0  0  0  0  0  0  0  0  0  0  0  0
   -0.9052    1.0086   -0.1498 C   0  0  2  0  0  0  0  0  0  0  0  0
   -1.5797   -0.3466   -0.5890 C   0  0  1  0  0  0  0  0  0  0  0  0
    0.6449    0.7006    0.2800 C   0  0  1  0  0  0  0  0  0  0  0  0
   -3.1704   -0.3925   -0.7113 C   0  0  2  0  0  0  0  0  0  0  0  0
   -3.7869    0.2685    0.5674 C   0  0  1  0  0  0  0  0  0  0  0  0
    2.8811   -0.1954   -0.8569 C   0  0  2  0  0  0  0  0  0  0  0  0
    3.6143    1.1411   -0.4909 C   0  0  1  0  0  0  0  0  0  0  0  0
    1.3508   -0.1520   -0.7915 C   0  0  0  0  0  0  0  0  0  0  0  0
   -1.7056    1.6248    1.0290 C   0  0  0  0  0  0  0  0  0  0  0  0
    1.4229    2.0325    0.4994 C   0  0  0  0  0  0  0  0  0  0  0  0
   -3.2161    1.6800    0.8051 C   0  0  0  0  0  0  0  0  0  0  0  0
   -5.3587    0.1797    0.7000 C   0  0  0  0  0  0  0  0  0  0  0  0
   -0.8364   -0.9479   -1.7995 C   0  0  0  0  0  0  0  0  0  0  0  0
    2.9280    1.8509    0.6989 C   0  0  0  0  0  0  0  0  0  0  0  0
   -3.6070   -1.9000   -0.7524 C   0  0  0  0  0  0  0  0  0  0  0  0
    5.1284    0.8916   -0.1799 C   0  0  2  0  0  0  0  0  0  0  0  0
    3.4628   -1.4655   -0.1809 C   0  0  0  0  0  0  0  0  0  0  0  0
   -0.9223    2.0412   -1.3167 C   0  0  0  0  0  0  0  0  0  0  0  0
    0.6556   -0.8663   -1.6991 C   0  0  0  0  0  0  0  0  0  0  0  0
    4.9894   -1.4058    0.0293 C   0  0  1  0  0  0  0  0  0  0  0  0
    0.7176   -0.0960    1.6174 C   0  0  0  0  0  0  0  0  0  0  0  0
   -5.9076   -1.0939   -0.0139 C   0  0  1  0  0  0  0  0  0  0  0  0
   -3.6935    0.2702   -2.0101 C   0  0  0  0  0  0  0  0  0  0  0  0
   -4.8998   -2.2345   -0.0037 C   0  0  0  0  0  0  0  0  0  0  0  0
    5.6533   -0.3603   -0.8564 C   0  0  0  0  0  0  0  0  0  0  0  0
    3.5589    2.0699   -1.7356 C   0  0  0  0  0  0  0  0  0  0  0  0
   -6.0965    1.4101    0.1262 C   0  0  0  0  0  0  0  0  0  0  0  0
   -5.7053    0.1354    2.2153 C   0  0  0  0  0  0  0  0  0  0  0  0
    5.2312   -0.7752    1.3855 C   0  0  0  0  0  0  0  0  0  0  0  0
    5.6503   -2.7722   -0.0784 C   0  0  0  0  0  0  0  0  0  0  0  0
   -1.3810   -1.0375    0.2410 H   0  0  0  0  0  0  0  0  0  0  0  0
   -3.3997   -0.3394    1.4022 H   0  0  0  0  0  0  0  0  0  0  0  0
    3.1157   -0.3529   -1.9234 H   0  0  0  0  0  0  0  0  0  0  0  0
   -1.5571    1.0431    1.9432 H   0  0  0  0  0  0  0  0  0  0  0  0
   -1.3437    2.6360    1.2501 H   0  0  0  0  0  0  0  0  0  0  0  0
    1.2915    2.7188   -0.3401 H   0  0  0  0  0  0  0  0  0  0  0  0
    1.0214    2.5561    1.3760 H   0  0  0  0  0  0  0  0  0  0  0  0
   -3.4542    2.3585   -0.0193 H   0  0  0  0  0  0  0  0  0  0  0  0
   -3.6634    2.1218    1.7025 H   0  0  0  0  0  0  0  0  0  0  0  0
   -1.1141   -0.4470   -2.7310 H   0  0  0  0  0  0  0  0  0  0  0  0
   -1.1110   -2.0026   -1.9137 H   0  0  0  0  0  0  0  0  0  0  0  0
    3.3843    2.8380    0.8507 H   0  0  0  0  0  0  0  0  0  0  0  0
    3.0922    1.3057    1.6336 H   0  0  0  0  0  0  0  0  0  0  0  0
   -2.8278   -2.5459   -0.3282 H   0  0  0  0  0  0  0  0  0  0  0  0
   -3.7074   -2.2246   -1.7968 H   0  0  0  0  0  0  0  0  0  0  0  0
    5.7423    1.7665   -0.4193 H   0  0  0  0  0  0  0  0  0  0  0  0
    3.2205   -2.3229   -0.8246 H   0  0  0  0  0  0  0  0  0  0  0  0
    2.9639   -1.6732    0.7711 H   0  0  0  0  0  0  0  0  0  0  0  0
   -1.8969    2.1407   -1.7855 H   0  0  0  0  0  0  0  0  0  0  0  0
   -0.6742    3.0482   -0.9638 H   0  0  0  0  0  0  0  0  0  0  0  0
   -0.2138    1.7899   -2.1115 H   0  0  0  0  0  0  0  0  0  0  0  0
    1.1957   -1.4433   -2.4472 H   0  0  0  0  0  0  0  0  0  0  0  0
    0.1597   -1.0354    1.5844 H   0  0  0  0  0  0  0  0  0  0  0  0
    0.3473    0.4913    2.4631 H   0  0  0  0  0  0  0  0  0  0  0  0
    1.7417   -0.3640    1.8884 H   0  0  0  0  0  0  0  0  0  0  0  0
   -6.1677   -0.8647   -1.0516 H   0  0  0  0  0  0  0  0  0  0  0  0
   -3.1096   -0.0120   -2.8887 H   0  0  0  0  0  0  0  0  0  0  0  0
   -4.7152   -0.0338   -2.2475 H   0  0  0  0  0  0  0  0  0  0  0  0
   -3.7160    1.3583   -1.9577 H   0  0  0  0  0  0  0  0  0  0  0  0
   -4.6650   -2.5031    1.0347 H   0  0  0  0  0  0  0  0  0  0  0  0
   -5.3444   -3.1413   -0.4327 H   0  0  0  0  0  0  0  0  0  0  0  0
    5.4055   -0.4404   -1.9185 H   0  0  0  0  0  0  0  0  0  0  0  0
    6.7461   -0.4080   -0.7590 H   0  0  0  0  0  0  0  0  0  0  0  0
    2.5390    2.2053   -2.1089 H   0  0  0  0  0  0  0  0  0  0  0  0
    3.9648    3.0613   -1.5047 H   0  0  0  0  0  0  0  0  0  0  0  0
    4.1503    1.6592   -2.5621 H   0  0  0  0  0  0  0  0  0  0  0  0
   -5.8442    2.3278    0.6678 H   0  0  0  0  0  0  0  0  0  0  0  0
   -5.8657    1.5720   -0.9296 H   0  0  0  0  0  0  0  0  0  0  0  0
   -7.1831    1.2846    0.2035 H   0  0  0  0  0  0  0  0  0  0  0  0
   -5.3075   -0.7695    2.6877 H   0  0  0  0  0  0  0  0  0  0  0  0
   -5.2913    0.9966    2.7498 H   0  0  0  0  0  0  0  0  0  0  0  0
   -6.7879    0.1512    2.3854 H   0  0  0  0  0  0  0  0  0  0  0  0
    5.5736   -3.1664   -1.0973 H   0  0  0  0  0  0  0  0  0  0  0  0
    5.1796   -3.4922    0.6004 H   0  0  0  0  0  0  0  0  0  0  0  0
    6.7125   -2.7252    0.1870 H   0  0  0  0  0  0  0  0  0  0  0  0
   -7.4369   -2.3094    0.0903 H   0  0  0  0  0  0  0  0  0  0  0  0
  1 19  1  0  0  0  0
  1 32  1  0  0  0  0
  2 25  1  0  0  0  0
  2 79  1  0  0  0  0
  3 32  2  0  0  0  0
  4  5  1  0  0  0  0
  4  6  1  0  0  0  0
  4 12  1  0  0  0  0
  4 21  1  0  0  0  0
  5  7  1  0  0  0  0
  5 16  1  0  0  0  0
  5 34  1  0  0  0  0
  6 11  1  0  0  0  0
  6 13  1  0  0  0  0
  6 24  1  0  0  0  0
  7  8  1  0  0  0  0
  7 18  1  0  0  0  0
  7 26  1  0  0  0  0
  8 14  1  0  0  0  0
  8 15  1  0  0  0  0
  8 35  1  0  0  0  0
  9 10  1  0  0  0  0
  9 11  1  0  0  0  0
  9 20  1  0  0  0  0
  9 36  1  0  0  0  0
 10 17  1  0  0  0  0
 10 19  1  0  0  0  0
 10 29  1  0  0  0  0
 11 22  2  0  0  0  0
 12 14  1  0  0  0  0
 12 37  1  0  0  0  0
 12 38  1  0  0  0  0
 13 17  1  0  0  0  0
 13 39  1  0  0  0  0
 13 40  1  0  0  0  0
 14 41  1  0  0  0  0
 14 42  1  0  0  0  0
 15 25  1  0  0  0  0
 15 30  1  0  0  0  0
 15 31  1  0  0  0  0
 16 22  1  0  0  0  0
 16 43  1  0  0  0  0
 16 44  1  0  0  0  0
 17 45  1  0  0  0  0
 17 46  1  0  0  0  0
 18 27  1  0  0  0  0
 18 47  1  0  0  0  0
 18 48  1  0  0  0  0
 19 28  1  0  0  0  0
 19 49  1  0  0  0  0
 20 23  1  0  0  0  0
 20 50  1  0  0  0  0
 20 51  1  0  0  0  0
 21 52  1  0  0  0  0
 21 53  1  0  0  0  0
 21 54  1  0  0  0  0
 22 55  1  0  0  0  0
 23 28  1  0  0  0  0
 23 32  1  0  0  0  0
 23 33  1  0  0  0  0
 24 56  1  0  0  0  0
 24 57  1  0  0  0  0
 24 58  1  0  0  0  0
 25 27  1  0  0  0  0
 25 59  1  0  0  0  0
 26 60  1  0  0  0  0
 26 61  1  0  0  0  0
 26 62  1  0  0  0  0
 27 63  1  0  0  0  0
 27 64  1  0  0  0  0
 28 65  1  0  0  0  0
 28 66  1  0  0  0  0
 29 67  1  0  0  0  0
 29 68  1  0  0  0  0
 29 69  1  0  0  0  0
 30 70  1  0  0  0  0
 30 71  1  0  0  0  0
 30 72  1  0  0  0  0
 31 73  1  0  0  0  0
 31 74  1  0  0  0  0
 31 75  1  0  0  0  0
 33 76  1  0  0  0  0
 33 77  1  0  0  0  0
 33 78  1  0  0  0  0
M  END
> <PUBCHEM_COMPOUND_CID>
44575701

> <PUBCHEM_CONFORMER_RMSD>
0.8

> <PUBCHEM_CONFORMER_DIVERSEORDER>
1

> <PUBCHEM_MMFF94_PARTIAL_CHARGES>
14
1 -0.43
11 -0.28
16 0.14
19 0.28
2 -0.68
22 -0.29
23 0.06
25 0.28
3 -0.57
32 0.66
55 0.15
6 0.14
79 0.4
9 0.14

> <PUBCHEM_EFFECTIVE_ROTOR_COUNT>
2.4

> <PUBCHEM_PHARMACOPHORE_FEATURES>
9
1 2 acceptor
1 2 donor
1 3 acceptor
3 15 30 31 hydrophobe
6 4 5 6 11 16 22 rings
6 4 5 7 8 12 14 rings
6 6 9 10 11 13 17 rings
6 7 8 15 18 25 27 rings
8 1 9 10 19 20 23 28 32 rings

> <PUBCHEM_HEAVY_ATOM_COUNT>
33

> <PUBCHEM_ATOM_DEF_STEREO_COUNT>
10

> <PUBCHEM_ATOM_UDEF_STEREO_COUNT>
0

> <PUBCHEM_BOND_DEF_STEREO_COUNT>
0

> <PUBCHEM_BOND_UDEF_STEREO_COUNT>
0

> <PUBCHEM_ISOTOPIC_ATOM_COUNT>
0

> <PUBCHEM_COMPONENT_COUNT>
1

> <PUBCHEM_CACTVS_TAUTO_COUNT>
1

> <PUBCHEM_CONFORMER_ID>
02A82BD500000001

> <PUBCHEM_MMFF94_ENERGY>
158.0514

> <PUBCHEM_FEATURE_SELFOVERLAP>
45.724

> <PUBCHEM_SHAPE_FINGERPRINT>
10 15 17275101742999312754
10319926 262 18202285766682205367
11646440 116 16343709832556251442
117089 54 17625552190306217206
11719270 70 18060702767002401471
12166972 35 17676211289967905421
12236239 1 18408889537849235773
12422481 6 18131073692727643253
12596602 18 18410011035235161427
12616971 3 18407760352244770429
12633257 1 18131353020352691525
12788726 201 16988297433745786272
13533116 47 17676206866794713456
13782708 43 17385723590822089723
13914758 101 18040429976552891381
14341114 176 18343024388808516868
14347332 77 17894905192156691980
14528608 73 8214142958393178650
14955137 171 17917434194558737484
15001296 14 17894910788499384498
15142383 8 18410570647983390076
15183329 4 18410295826163936059
15238133 3 16630256839563786953
15575132 122 11311788245902041163
15685185 35 17613449148586018124
15788980 27 17967249801752813709
15799311 1 18336842977461134339
17349148 13 18409171000204574272
17492 89 18265330604405835566
17844677 252 17458340840462792324
17857418 61 18412263943271559153
1813 80 18041000648024438196
19377110 9 18412828014322409424
1979834 28 17131840854352765254
19958102 18 15357694180377164451
20028762 73 18408323268018671770
21130935 74 18131634473723255339
21267235 1 18272939298089841446
22061861 79 16081087069404523570
22149856 69 17202790158403931067
23522609 53 18124910999038205849
23559900 14 18272082825370541665
23569914 152 15218869752187466875
23569943 247 16444172119997553971
3004659 81 18409735066849492740
3411729 13 16987707086707712864
34797466 226 16226050045369930365
350125 39 18202284710088920364
3680242 22 18201728331477387202
3886686 26 17263852377975548218
392239 28 18201730561151034811
394071 54 14836117797553448706
397830 11 14979386404472913959
4073 2 18190465050437362906
4258327 124 13325988075800194801
46194498 28 17313106384542458916
465052 167 18342181063764624222
5104073 3 17988925599705017187
513202 73 18041278782001732885
54039377 194 18338240337583844614
6081469 158 18333725837318076559
6086070 43 18264750161187657669
7495541 125 18341051899329455424

> <PUBCHEM_SHAPE_MULTIPOLES>
661.52
16.33
2.31
1.76
5.13
0.26
0.19
5.96
5.08
-0.64
-0.11
-0.28
-0.04
-1.01

> <PUBCHEM_SHAPE_SELFOVERLAP>
1430.39

> <PUBCHEM_SHAPE_VOLUME>
358.6

> <PUBCHEM_COORDINATE_TYPE>
2
5
10

$$$$
