101936045
  -OEChem-09122009563D

 82 86  0     1  0  0  0  0  0999 V2000
   -0.6870   -2.9321    0.0167 O   0  0  0  0  0  0  0  0  0  0  0  0
   -6.9517   -0.8912    0.5689 O   0  0  0  0  0  0  0  0  0  0  0  0
   -0.4559    0.8891   -0.2117 C   0  0  2  0  0  0  0  0  0  0  0  0
   -1.1463   -0.5144    0.0868 C   0  0  1  0  0  0  0  0  0  0  0  0
   -2.6898   -0.6658   -0.3646 C   0  0  2  0  0  0  0  0  0  0  0  0
    0.9531    1.0057    0.5941 C   0  0  1  0  0  0  0  0  0  0  0  0
   -3.4681    0.5974    0.1794 C   0  0  1  0  0  0  0  0  0  0  0  0
   -1.4065    2.0390    0.2070 C   0  0  0  0  0  0  0  0  0  0  0  0
   -0.1732   -1.6517   -0.3342 C   0  0  1  0  0  0  0  0  0  0  0  0
   -2.8309    1.9037   -0.3230 C   0  0  0  0  0  0  0  0  0  0  0  0
   -5.0387    0.5612    0.0748 C   0  0  0  0  0  0  0  0  0  0  0  0
    1.8683   -0.1823    0.2083 C   0  0  0  0  0  0  0  0  0  0  0  0
   -3.3309   -1.9183    0.3180 C   0  0  0  0  0  0  0  0  0  0  0  0
    1.6302    2.3803    0.2972 C   0  0  0  0  0  0  0  0  0  0  0  0
    1.1857   -1.5281    0.3656 C   0  0  0  0  0  0  0  0  0  0  0  0
   -0.1749    1.0515   -1.7402 C   0  0  0  0  0  0  0  0  0  0  0  0
    3.8869    1.3222   -0.1818 C   0  0  1  0  0  0  0  0  0  0  0  0
    3.1585   -0.0336   -0.1965 C   0  0  0  0  0  0  0  0  0  0  0  0
   -5.5427   -0.7464    0.7459 C   0  0  2  0  0  0  0  0  0  0  0  0
   -2.8219   -0.8670   -1.8925 C   0  0  0  0  0  0  0  0  0  0  0  0
   -4.8541   -1.9986    0.2239 C   0  0  0  0  0  0  0  0  0  0  0  0
    3.1114    2.3846    0.6323 C   0  0  0  0  0  0  0  0  0  0  0  0
    0.7667    0.9485    2.1424 C   0  0  0  0  0  0  0  0  0  0  0  0
    4.0350   -1.1737   -0.7069 C   0  0  0  0  0  0  0  0  0  0  0  0
    5.2804    1.1961    0.4984 C   0  0  0  0  0  0  0  0  0  0  0  0
   -5.6525    1.7442    0.8767 C   0  0  0  0  0  0  0  0  0  0  0  0
   -5.5723    0.7038   -1.3649 C   0  0  0  0  0  0  0  0  0  0  0  0
    5.3733   -1.3169    0.0496 C   0  0  0  0  0  0  0  0  0  0  0  0
    6.1284    0.0254    0.0035 C   0  0  0  0  0  0  0  0  0  0  0  0
    4.0608    1.8262   -1.6339 C   0  0  0  0  0  0  0  0  0  0  0  0
    5.1264   -1.7663    1.5033 C   0  0  0  0  0  0  0  0  0  0  0  0
    6.2324   -2.3926   -0.6424 C   0  0  0  0  0  0  0  0  0  0  0  0
   -1.2257   -0.5926    1.1788 H   0  0  0  0  0  0  0  0  0  0  0  0
   -3.2820    0.5916    1.2672 H   0  0  0  0  0  0  0  0  0  0  0  0
   -1.0097    3.0061   -0.1247 H   0  0  0  0  0  0  0  0  0  0  0  0
   -1.4716    2.0985    1.2987 H   0  0  0  0  0  0  0  0  0  0  0  0
   -0.0234   -1.6530   -1.4181 H   0  0  0  0  0  0  0  0  0  0  0  0
   -3.3835    2.7739    0.0428 H   0  0  0  0  0  0  0  0  0  0  0  0
   -2.8478    1.9754   -1.4137 H   0  0  0  0  0  0  0  0  0  0  0  0
   -3.0524   -1.9407    1.3795 H   0  0  0  0  0  0  0  0  0  0  0  0
   -2.9504   -2.8405   -0.1308 H   0  0  0  0  0  0  0  0  0  0  0  0
    1.1393    3.1782    0.8687 H   0  0  0  0  0  0  0  0  0  0  0  0
    1.5321    2.6747   -0.7485 H   0  0  0  0  0  0  0  0  0  0  0  0
    1.7980   -2.3691    0.0381 H   0  0  0  0  0  0  0  0  0  0  0  0
    1.0534   -1.7249    1.4385 H   0  0  0  0  0  0  0  0  0  0  0  0
    0.6447    0.4170   -2.0888 H   0  0  0  0  0  0  0  0  0  0  0  0
    0.0800    2.0827   -2.0032 H   0  0  0  0  0  0  0  0  0  0  0  0
   -1.0357    0.8204   -2.3603 H   0  0  0  0  0  0  0  0  0  0  0  0
   -5.3652   -0.6823    1.8278 H   0  0  0  0  0  0  0  0  0  0  0  0
   -2.9278    0.0708   -2.4399 H   0  0  0  0  0  0  0  0  0  0  0  0
   -3.6914   -1.4702   -2.1650 H   0  0  0  0  0  0  0  0  0  0  0  0
   -1.9697   -1.4072   -2.3119 H   0  0  0  0  0  0  0  0  0  0  0  0
   -5.1783   -2.2113   -0.8007 H   0  0  0  0  0  0  0  0  0  0  0  0
   -5.1994   -2.8654    0.8029 H   0  0  0  0  0  0  0  0  0  0  0  0
    3.5228    3.3842    0.4403 H   0  0  0  0  0  0  0  0  0  0  0  0
    3.2367    2.2184    1.7092 H   0  0  0  0  0  0  0  0  0  0  0  0
    1.7313    0.8631    2.6570 H   0  0  0  0  0  0  0  0  0  0  0  0
    0.1711    0.0984    2.4813 H   0  0  0  0  0  0  0  0  0  0  0  0
    0.2851    1.8524    2.5294 H   0  0  0  0  0  0  0  0  0  0  0  0
    3.5333   -2.1420   -0.7032 H   0  0  0  0  0  0  0  0  0  0  0  0
    4.2375   -0.9851   -1.7699 H   0  0  0  0  0  0  0  0  0  0  0  0
    5.1568    1.0888    1.5841 H   0  0  0  0  0  0  0  0  0  0  0  0
    5.8476    2.1257    0.3572 H   0  0  0  0  0  0  0  0  0  0  0  0
   -6.6577    0.8616   -1.3694 H   0  0  0  0  0  0  0  0  0  0  0  0
   -5.3926   -0.1816   -1.9750 H   0  0  0  0  0  0  0  0  0  0  0  0
   -5.1277    1.5640   -1.8755 H   0  0  0  0  0  0  0  0  0  0  0  0
   -6.7400    1.6436    0.9710 H   0  0  0  0  0  0  0  0  0  0  0  0
   -5.4731    2.7080    0.3899 H   0  0  0  0  0  0  0  0  0  0  0  0
   -5.2393    1.7932    1.8903 H   0  0  0  0  0  0  0  0  0  0  0  0
    6.4583    0.2327   -1.0223 H   0  0  0  0  0  0  0  0  0  0  0  0
    7.0429   -0.0339    0.6076 H   0  0  0  0  0  0  0  0  0  0  0  0
    4.4947    2.8327   -1.6511 H   0  0  0  0  0  0  0  0  0  0  0  0
    3.1047    1.8683   -2.1670 H   0  0  0  0  0  0  0  0  0  0  0  0
    4.7242    1.1848   -2.2225 H   0  0  0  0  0  0  0  0  0  0  0  0
   -0.0762   -3.6038   -0.3315 H   0  0  0  0  0  0  0  0  0  0  0  0
   -7.2266   -1.6964    1.0398 H   0  0  0  0  0  0  0  0  0  0  0  0
    4.6240   -2.7401    1.5309 H   0  0  0  0  0  0  0  0  0  0  0  0
    6.4333   -2.1296   -1.6871 H   0  0  0  0  0  0  0  0  0  0  0  0
    5.7292   -3.3660   -0.6365 H   0  0  0  0  0  0  0  0  0  0  0  0
    7.1978   -2.5122   -0.1378 H   0  0  0  0  0  0  0  0  0  0  0  0
    6.0720   -1.8661    2.0483 H   0  0  0  0  0  0  0  0  0  0  0  0
    4.4991   -1.0630    2.0595 H   0  0  0  0  0  0  0  0  0  0  0  0
  1  9  1  0  0  0  0
  1 75  1  0  0  0  0
  2 19  1  0  0  0  0
  2 76  1  0  0  0  0
  3  4  1  0  0  0  0
  3  6  1  0  0  0  0
  3  8  1  0  0  0  0
  3 16  1  0  0  0  0
  4  5  1  0  0  0  0
  4  9  1  0  0  0  0
  4 33  1  0  0  0  0
  5  7  1  0  0  0  0
  5 13  1  0  0  0  0
  5 20  1  0  0  0  0
  6 12  1  0  0  0  0
  6 14  1  0  0  0  0
  6 23  1  0  0  0  0
  7 10  1  0  0  0  0
  7 11  1  0  0  0  0
  7 34  1  0  0  0  0
  8 10  1  0  0  0  0
  8 35  1  0  0  0  0
  8 36  1  0  0  0  0
  9 15  1  0  0  0  0
  9 37  1  0  0  0  0
 10 38  1  0  0  0  0
 10 39  1  0  0  0  0
 11 19  1  0  0  0  0
 11 26  1  0  0  0  0
 11 27  1  0  0  0  0
 12 15  1  0  0  0  0
 12 18  2  0  0  0  0
 13 21  1  0  0  0  0
 13 40  1  0  0  0  0
 13 41  1  0  0  0  0
 14 22  1  0  0  0  0
 14 42  1  0  0  0  0
 14 43  1  0  0  0  0
 15 44  1  0  0  0  0
 15 45  1  0  0  0  0
 16 46  1  0  0  0  0
 16 47  1  0  0  0  0
 16 48  1  0  0  0  0
 17 18  1  0  0  0  0
 17 22  1  0  0  0  0
 17 25  1  0  0  0  0
 17 30  1  0  0  0  0
 18 24  1  0  0  0  0
 19 21  1  0  0  0  0
 19 49  1  0  0  0  0
 20 50  1  0  0  0  0
 20 51  1  0  0  0  0
 20 52  1  0  0  0  0
 21 53  1  0  0  0  0
 21 54  1  0  0  0  0
 22 55  1  0  0  0  0
 22 56  1  0  0  0  0
 23 57  1  0  0  0  0
 23 58  1  0  0  0  0
 23 59  1  0  0  0  0
 24 28  1  0  0  0  0
 24 60  1  0  0  0  0
 24 61  1  0  0  0  0
 25 29  1  0  0  0  0
 25 62  1  0  0  0  0
 25 63  1  0  0  0  0
 26 67  1  0  0  0  0
 26 68  1  0  0  0  0
 26 69  1  0  0  0  0
 27 64  1  0  0  0  0
 27 65  1  0  0  0  0
 27 66  1  0  0  0  0
 28 29  1  0  0  0  0
 28 31  1  0  0  0  0
 28 32  1  0  0  0  0
 29 70  1  0  0  0  0
 29 71  1  0  0  0  0
 30 72  1  0  0  0  0
 30 73  1  0  0  0  0
 30 74  1  0  0  0  0
 31 77  1  0  0  0  0
 31 81  1  0  0  0  0
 31 82  1  0  0  0  0
 32 78  1  0  0  0  0
 32 79  1  0  0  0  0
 32 80  1  0  0  0  0
M  END
> <PUBCHEM_COMPOUND_CID>
101936045

> <PUBCHEM_CONFORMER_RMSD>
0.8

> <PUBCHEM_CONFORMER_DIVERSEORDER>
1

> <PUBCHEM_MMFF94_PARTIAL_CHARGES>
12
1 -0.68
12 -0.28
15 0.14
17 0.14
18 -0.28
19 0.28
2 -0.68
24 0.14
6 0.14
75 0.4
76 0.4
9 0.28

> <PUBCHEM_EFFECTIVE_ROTOR_COUNT>
2.8

> <PUBCHEM_PHARMACOPHORE_FEATURES>
11
1 1 acceptor
1 1 donor
1 2 acceptor
1 2 donor
3 11 26 27 hydrophobe
3 28 31 32 hydrophobe
6 17 18 24 25 28 29 rings
6 3 4 5 7 8 10 rings
6 3 4 6 9 12 15 rings
6 5 7 11 13 19 21 rings
6 6 12 14 17 18 22 rings

> <PUBCHEM_HEAVY_ATOM_COUNT>
32

> <PUBCHEM_ATOM_DEF_STEREO_COUNT>
8

> <PUBCHEM_ATOM_UDEF_STEREO_COUNT>
0

> <PUBCHEM_BOND_DEF_STEREO_COUNT>
0

> <PUBCHEM_BOND_UDEF_STEREO_COUNT>
0

> <PUBCHEM_ISOTOPIC_ATOM_COUNT>
0

> <PUBCHEM_COMPONENT_COUNT>
1

> <PUBCHEM_CACTVS_TAUTO_COUNT>
1

> <PUBCHEM_CONFORMER_ID>
06136BAD00000001

> <PUBCHEM_MMFF94_ENERGY>
145.0518

> <PUBCHEM_FEATURE_SELFOVERLAP>
55.881

> <PUBCHEM_SHAPE_FINGERPRINT>
11578080 2 16843306051087898794
11756154 67 17905891371552624994
12166972 35 17748832920780983988
12236239 1 18202002109851558920
12422481 6 18060419092865077342
12616971 3 18273490182551661542
12633257 1 16988284278265700093
12788726 201 17775018877113631480
13140716 1 18413385441021851665
13224815 77 18113610218284408389
13402501 40 18411702088513900515
13533116 47 18060136519046547562
13782708 43 18334857216464160331
13811026 1 18341609296655138462
14341114 176 18410295817368344560
14790565 3 18411423925125884137
14955137 171 18114471157859932189
15183329 4 18411418401496929760
15196674 1 18410856585420142867
15238133 3 17131840832835958169
15788980 27 18260266356220164952
1601671 61 18335420188129723453
17349148 13 18059857247287774426
1813 80 17240760713720182308
18393751 57 15686981704095807049
18608769 82 18337110180836020274
19591789 44 18410572902893597626
1979834 28 17346604049970386806
20028762 73 18272931617744785238
21033648 29 18340755027596855769
21130935 74 18273215291960658802
21267235 1 18341056229415956654
21279426 13 18410573955118361335
21682296 61 18129388107391151606
21703447 108 16839639252380915634
21781051 124 18115327659842604651
22393880 68 18187074023275040181
23522609 53 18193589763568255789
23559900 14 18411694413323083184
23569943 247 17459742614783092258
3004659 81 18408606946750532470
3178227 256 18411709785454043635
335352 9 18412263913064357030
3383291 50 18411134723371756810
338550 245 18335703870872299940
350125 39 18409449167803415348
3633792 109 18337660929162270725
3680242 22 18337111168436197930
392239 28 18341342145256742595
4073 2 18114749364202734314
4093350 32 16773800329560726896
4098825 35 18113340829978912180
46194498 28 17821447976468884300
484989 97 18335713766625208178
5104073 3 18412543227656823872
59755656 215 18337954472353822966
6081469 158 18114175342424861055
6086070 43 17203028730831139225
7495541 125 18343301491725226904
9996256 80 18412544353502958391

> <PUBCHEM_SHAPE_MULTIPOLES>
646.81
15.35
2.74
1.32
2.23
0.29
-0.14
3.74
0.66
-1.09
0.13
-0.05
-0.21
-0.04

> <PUBCHEM_SHAPE_SELFOVERLAP>
1368.205

> <PUBCHEM_SHAPE_VOLUME>
355.8

> <PUBCHEM_COORDINATE_TYPE>
2
5
10

$$$$
