20056194
  -OEChem-09122009473D

 83 88  0     1  0  0  0  0  0999 V2000
   -5.8201   -0.1670   -1.1394 O   0  0  0  0  0  0  0  0  0  0  0  0
   -7.0910   -1.1037    0.6239 O   0  0  0  0  0  0  0  0  0  0  0  0
   -4.8263   -2.6873    1.3315 O   0  0  0  0  0  0  0  0  0  0  0  0
    5.8533   -2.1184    1.6424 O   0  0  0  0  0  0  0  0  0  0  0  0
    6.8624   -2.7113   -0.3136 O   0  0  0  0  0  0  0  0  0  0  0  0
    0.6279    1.2723   -0.2587 C   0  0  2  0  0  0  0  0  0  0  0  0
   -1.5151   -0.2805   -0.7529 C   0  0  2  0  0  0  0  0  0  0  0  0
   -0.9125    0.9729   -0.0164 C   0  0  2  0  0  0  0  0  0  0  0  0
    1.4901   -0.0276    0.0316 C   0  0  2  0  0  0  0  0  0  0  0  0
   -2.9078   -0.5970   -0.0434 C   0  0  1  0  0  0  0  0  0  0  0  0
   -3.9060    0.6261    0.0694 C   0  0  2  0  0  0  0  0  0  0  0  0
    3.0145    0.2698   -0.3246 C   0  0  1  0  0  0  0  0  0  0  0  0
   -0.5599   -1.4931   -0.5678 C   0  0  0  0  0  0  0  0  0  0  0  0
    0.9258   -1.1975   -0.8316 C   0  0  0  0  0  0  0  0  0  0  0  0
    3.5905    1.5813    0.3517 C   0  0  1  0  0  0  0  0  0  0  0  0
   -1.8524    2.1867   -0.1732 C   0  0  0  0  0  0  0  0  0  0  0  0
    1.1035    2.4176    0.6885 C   0  0  0  0  0  0  0  0  0  0  0  0
   -3.1907    1.9150    0.5073 C   0  0  0  0  0  0  0  0  0  0  0  0
   -5.0367    0.2246    1.0579 C   0  0  2  0  0  0  0  0  0  0  0  0
   -3.6150   -1.8733   -0.5782 C   0  0  0  0  0  0  0  0  0  0  0  0
    2.5508    2.3594    1.1993 C   0  0  0  0  0  0  0  0  0  0  0  0
   -5.7881   -0.7753    0.1677 C   0  0  2  0  0  0  0  0  0  0  0  0
   -4.7519    0.8034   -1.2056 C   0  0  0  0  0  0  0  0  0  0  0  0
    0.8132    1.7979   -1.7116 C   0  0  0  0  0  0  0  0  0  0  0  0
   -1.6948   -0.0815   -2.2796 C   0  0  0  0  0  0  0  0  0  0  0  0
    3.9169   -0.9757   -0.0776 C   0  0  0  0  0  0  0  0  0  0  0  0
    1.3870   -0.5200    1.5154 C   0  0  0  0  0  0  0  0  0  0  0  0
   -4.9962   -2.0903    0.0465 C   0  0  2  0  0  0  0  0  0  0  0  0
    4.7856    1.2167    1.2783 C   0  0  0  0  0  0  0  0  0  0  0  0
    5.4322   -0.7490   -0.2336 C   0  0  2  0  0  0  0  0  0  0  0  0
    5.9150    0.4924    0.5407 C   0  0  0  0  0  0  0  0  0  0  0  0
    4.1397    2.5802   -0.7072 C   0  0  0  0  0  0  0  0  0  0  0  0
   -5.9186    1.3832    1.5495 C   0  0  0  0  0  0  0  0  0  0  0  0
    5.8378   -0.6869   -1.7125 C   0  0  0  0  0  0  0  0  0  0  0  0
    6.1370   -1.9643    0.3260 C   0  0  0  0  0  0  0  0  0  0  0  0
   -0.9750    0.7389    1.0546 H   0  0  0  0  0  0  0  0  0  0  0  0
   -2.6408   -0.8389    0.9987 H   0  0  0  0  0  0  0  0  0  0  0  0
    3.0493    0.4256   -1.4113 H   0  0  0  0  0  0  0  0  0  0  0  0
   -0.8618   -2.3129   -1.2326 H   0  0  0  0  0  0  0  0  0  0  0  0
   -0.6625   -1.8921    0.4488 H   0  0  0  0  0  0  0  0  0  0  0  0
    1.4733   -2.1240   -0.6197 H   0  0  0  0  0  0  0  0  0  0  0  0
    1.0918   -1.0123   -1.8970 H   0  0  0  0  0  0  0  0  0  0  0  0
   -2.0193    2.4569   -1.2186 H   0  0  0  0  0  0  0  0  0  0  0  0
   -1.4197    3.0751    0.2986 H   0  0  0  0  0  0  0  0  0  0  0  0
    0.4644    2.4498    1.5813 H   0  0  0  0  0  0  0  0  0  0  0  0
    0.9508    3.3892    0.1996 H   0  0  0  0  0  0  0  0  0  0  0  0
   -3.0036    1.8619    1.5888 H   0  0  0  0  0  0  0  0  0  0  0  0
   -3.8373    2.7881    0.3559 H   0  0  0  0  0  0  0  0  0  0  0  0
   -4.6383   -0.2550    1.9603 H   0  0  0  0  0  0  0  0  0  0  0  0
   -3.7566   -1.8077   -1.6602 H   0  0  0  0  0  0  0  0  0  0  0  0
   -2.9851   -2.7503   -0.3919 H   0  0  0  0  0  0  0  0  0  0  0  0
    2.8976    3.3912    1.3556 H   0  0  0  0  0  0  0  0  0  0  0  0
    2.5277    1.9557    2.2185 H   0  0  0  0  0  0  0  0  0  0  0  0
   -5.2174    1.7935   -1.2618 H   0  0  0  0  0  0  0  0  0  0  0  0
   -4.2128    0.6498   -2.1390 H   0  0  0  0  0  0  0  0  0  0  0  0
    0.7863    1.0158   -2.4661 H   0  0  0  0  0  0  0  0  0  0  0  0
    0.0606    2.5460   -1.9766 H   0  0  0  0  0  0  0  0  0  0  0  0
    1.7696    2.2900   -1.8607 H   0  0  0  0  0  0  0  0  0  0  0  0
   -2.1283    0.8827   -2.5448 H   0  0  0  0  0  0  0  0  0  0  0  0
   -0.7574   -0.1670   -2.8290 H   0  0  0  0  0  0  0  0  0  0  0  0
   -2.3267   -0.8536   -2.7246 H   0  0  0  0  0  0  0  0  0  0  0  0
    3.7145   -1.3631    0.9257 H   0  0  0  0  0  0  0  0  0  0  0  0
    3.6169   -1.7820   -0.7589 H   0  0  0  0  0  0  0  0  0  0  0  0
    2.0586   -0.0010    2.1973 H   0  0  0  0  0  0  0  0  0  0  0  0
    0.3840   -0.4325    1.9357 H   0  0  0  0  0  0  0  0  0  0  0  0
    1.6499   -1.5818    1.5973 H   0  0  0  0  0  0  0  0  0  0  0  0
   -5.5493   -2.8112   -0.5684 H   0  0  0  0  0  0  0  0  0  0  0  0
    4.4409    0.5892    2.1104 H   0  0  0  0  0  0  0  0  0  0  0  0
    5.1952    2.1234    1.7431 H   0  0  0  0  0  0  0  0  0  0  0  0
    6.4009    1.1986   -0.1443 H   0  0  0  0  0  0  0  0  0  0  0  0
    6.6945    0.2411    1.2716 H   0  0  0  0  0  0  0  0  0  0  0  0
    3.3581    3.2040   -1.1441 H   0  0  0  0  0  0  0  0  0  0  0  0
    4.8491    3.2831   -0.2525 H   0  0  0  0  0  0  0  0  0  0  0  0
    4.6597    2.0802   -1.5264 H   0  0  0  0  0  0  0  0  0  0  0  0
   -6.3805    1.9375    0.7275 H   0  0  0  0  0  0  0  0  0  0  0  0
   -6.7267    1.0009    2.1826 H   0  0  0  0  0  0  0  0  0  0  0  0
   -5.3442    2.0879    2.1583 H   0  0  0  0  0  0  0  0  0  0  0  0
   -7.3622   -1.9454    0.2215 H   0  0  0  0  0  0  0  0  0  0  0  0
    5.3509    0.1422   -2.2321 H   0  0  0  0  0  0  0  0  0  0  0  0
    6.9203   -0.5540   -1.8278 H   0  0  0  0  0  0  0  0  0  0  0  0
    5.5604   -1.6030   -2.2482 H   0  0  0  0  0  0  0  0  0  0  0  0
   -4.3702   -3.5366    1.2047 H   0  0  0  0  0  0  0  0  0  0  0  0
    6.3007   -2.9034    2.0242 H   0  0  0  0  0  0  0  0  0  0  0  0
  1 22  1  0  0  0  0
  1 23  1  0  0  0  0
  2 22  1  0  0  0  0
  2 78  1  0  0  0  0
  3 28  1  0  0  0  0
  3 82  1  0  0  0  0
  4 35  1  0  0  0  0
  4 83  1  0  0  0  0
  5 35  2  0  0  0  0
  6  8  1  0  0  0  0
  6  9  1  0  0  0  0
  6 17  1  0  0  0  0
  6 24  1  0  0  0  0
  7  8  1  0  0  0  0
  7 10  1  0  0  0  0
  7 13  1  0  0  0  0
  7 25  1  0  0  0  0
  8 16  1  0  0  0  0
  8 36  1  0  0  0  0
  9 12  1  0  0  0  0
  9 14  1  0  0  0  0
  9 27  1  0  0  0  0
 10 11  1  0  0  0  0
 10 20  1  0  0  0  0
 10 37  1  0  0  0  0
 11 18  1  0  0  0  0
 11 19  1  0  0  0  0
 11 23  1  0  0  0  0
 12 15  1  0  0  0  0
 12 26  1  0  0  0  0
 12 38  1  0  0  0  0
 13 14  1  0  0  0  0
 13 39  1  0  0  0  0
 13 40  1  0  0  0  0
 14 41  1  0  0  0  0
 14 42  1  0  0  0  0
 15 21  1  0  0  0  0
 15 29  1  0  0  0  0
 15 32  1  0  0  0  0
 16 18  1  0  0  0  0
 16 43  1  0  0  0  0
 16 44  1  0  0  0  0
 17 21  1  0  0  0  0
 17 45  1  0  0  0  0
 17 46  1  0  0  0  0
 18 47  1  0  0  0  0
 18 48  1  0  0  0  0
 19 22  1  0  0  0  0
 19 33  1  0  0  0  0
 19 49  1  0  0  0  0
 20 28  1  0  0  0  0
 20 50  1  0  0  0  0
 20 51  1  0  0  0  0
 21 52  1  0  0  0  0
 21 53  1  0  0  0  0
 22 28  1  0  0  0  0
 23 54  1  0  0  0  0
 23 55  1  0  0  0  0
 24 56  1  0  0  0  0
 24 57  1  0  0  0  0
 24 58  1  0  0  0  0
 25 59  1  0  0  0  0
 25 60  1  0  0  0  0
 25 61  1  0  0  0  0
 26 30  1  0  0  0  0
 26 62  1  0  0  0  0
 26 63  1  0  0  0  0
 27 64  1  0  0  0  0
 27 65  1  0  0  0  0
 27 66  1  0  0  0  0
 28 67  1  0  0  0  0
 29 31  1  0  0  0  0
 29 68  1  0  0  0  0
 29 69  1  0  0  0  0
 30 31  1  0  0  0  0
 30 34  1  0  0  0  0
 30 35  1  0  0  0  0
 31 70  1  0  0  0  0
 31 71  1  0  0  0  0
 32 72  1  0  0  0  0
 32 73  1  0  0  0  0
 32 74  1  0  0  0  0
 33 75  1  0  0  0  0
 33 76  1  0  0  0  0
 33 77  1  0  0  0  0
 34 79  1  0  0  0  0
 34 80  1  0  0  0  0
 34 81  1  0  0  0  0
M  END
> <PUBCHEM_COMPOUND_CID>
20056194

> <PUBCHEM_CONFORMER_RMSD>
0.8

> <PUBCHEM_CONFORMER_DIVERSEORDER>
1
2

> <PUBCHEM_MMFF94_PARTIAL_CHARGES>
13
1 -0.56
2 -0.68
22 0.56
23 0.28
28 0.28
3 -0.68
30 0.06
35 0.66
4 -0.65
5 -0.57
78 0.4
82 0.4
83 0.5

> <PUBCHEM_EFFECTIVE_ROTOR_COUNT>
4

> <PUBCHEM_PHARMACOPHORE_FEATURES>
13
1 1 acceptor
1 2 acceptor
1 2 donor
1 3 acceptor
1 3 donor
1 4 acceptor
1 5 acceptor
3 4 5 35 anion
6 12 15 26 29 30 31 rings
6 6 7 8 9 13 14 rings
6 6 9 12 15 17 21 rings
6 7 8 10 11 16 18 rings
8 1 10 11 19 20 22 23 28 rings

> <PUBCHEM_HEAVY_ATOM_COUNT>
35

> <PUBCHEM_ATOM_DEF_STEREO_COUNT>
12

> <PUBCHEM_ATOM_UDEF_STEREO_COUNT>
0

> <PUBCHEM_BOND_DEF_STEREO_COUNT>
0

> <PUBCHEM_BOND_UDEF_STEREO_COUNT>
0

> <PUBCHEM_ISOTOPIC_ATOM_COUNT>
0

> <PUBCHEM_COMPONENT_COUNT>
1

> <PUBCHEM_CACTVS_TAUTO_COUNT>
1

> <PUBCHEM_CONFORMER_ID>
0132088200000001

> <PUBCHEM_MMFF94_ENERGY>
188.9399

> <PUBCHEM_FEATURE_SELFOVERLAP>
66.122

> <PUBCHEM_SHAPE_FINGERPRINT>
10076449 9 18342747282968749726
10190108 129 18041571234450388451
10319926 262 18201716232496408009
10673678 19 17827367880301900828
11456790 92 17846229860599629747
11578080 2 16628537341196427794
11991303 11 16084160062691694037
12107183 9 18270688541452276777
12107698 1 18410013212746747937
12166972 35 18186806893494776108
12236239 1 18412265038393566353
12422481 6 17632579340273004734
12633257 1 16558749069800714973
13224815 77 18059579135397174053
13533116 47 18411135874833844128
13782708 43 18040149613155448338
13811026 1 18343579634482289213
14341114 176 18411419544127204489
14420673 8 18339928116825678386
14528608 73 7853575716719014096
14840074 17 13406792224918502515
14849402 71 18201158874765259096
14856354 85 18335427863405301231
14955137 171 18413390955517370220
15021287 119 17846491543565355205
15183329 4 18343021090600772182
15352257 5 18260831496871216706
1577012 14 18059860579523487465
15799311 1 18114477720253416818
17349148 13 17313385651447172577
1813 80 17749102310110373532
18222031 100 17675924304869887532
18608769 82 18337953502044050586
1979834 28 17132120126390944286
20028762 73 18273211985036560982
21033648 29 16917055634338093499
21033650 10 16443621282158426869
21130935 74 18273494585030621114
21267235 1 18341898468107306862
21682296 61 18202286853488422598
21792934 111 18272365361547013753
22223350 30 17273400893106626778
22393880 68 18114169818406061853
23522609 53 18121250681848037548
23559900 14 18336258042028982849
23569917 315 18343303695671957871
23569943 247 17970061149943525602
3004659 81 18342181068508003932
3383291 50 18413385427842193738
34797466 226 15936414463693946454
350125 39 18413672409145669660
3633792 109 18338222809742331141
3680242 22 18272096001955633376
392239 28 18343029908490397515
4073 2 18189899897445222266
4093350 32 16630528467040479736
4144715 1 18342186569797055795
4340502 62 13614520753847579644
46194498 28 17749384902089687860
465052 167 18342740702651668734
5080951 261 15051144836980236621
5104073 3 18272933842611054729
513202 73 18113898200242411949
54039377 194 18340209575830873758
59755656 215 18335698334369662303
6081469 158 18260823809554308271
8863177 126 18409731802463688962
9896288 288 17557993831785867000
9996256 80 18273213131607536839

> <PUBCHEM_SHAPE_MULTIPOLES>
690.94
17.3
2.77
1.49
0.59
0.02
-0.24
-8.08
3.35
1.49
0.44
-0.01
0.05
-0.02

> <PUBCHEM_SHAPE_SELFOVERLAP>
1489.854

> <PUBCHEM_SHAPE_VOLUME>
372

> <PUBCHEM_COORDINATE_TYPE>
2
5
10

$$$$
