129521
  -OEChem-09122009553D

 85 89  0     1  0  0  0  0  0999 V2000
    7.5601    0.9311    1.1021 O   0  0  0  0  0  0  0  0  0  0  0  0
   -4.7990   -1.2070    1.5574 O   0  0  0  0  0  0  0  0  0  0  0  0
   -6.7433    1.4074    0.5857 O   0  0  0  0  0  0  0  0  0  0  0  0
   -4.5924    2.1315    1.0163 O   0  0  0  0  0  0  0  0  0  0  0  0
    1.3245   -0.7748    0.0604 C   0  0  2  0  0  0  0  0  0  0  0  0
    1.8229    0.6823   -0.1962 C   0  0  1  0  0  0  0  0  0  0  0  0
    3.4219    0.8920   -0.3495 C   0  0  2  0  0  0  0  0  0  0  0  0
   -0.2208   -0.7411    0.5765 C   0  0  1  0  0  0  0  0  0  0  0  0
    4.2554   -0.4521   -0.3095 C   0  0  2  0  0  0  0  0  0  0  0  0
    2.2518   -1.3674    1.1325 C   0  0  0  0  0  0  0  0  0  0  0  0
   -1.1051    0.1166   -0.3630 C   0  0  0  0  0  0  0  0  0  0  0  0
   -2.6408   -0.0629   -0.2530 C   0  0  2  0  0  0  0  0  0  0  0  0
    3.7213   -1.4493    0.7509 C   0  0  0  0  0  0  0  0  0  0  0  0
   -3.1026   -1.5587   -0.1808 C   0  0  1  0  0  0  0  0  0  0  0  0
    5.8391   -0.2960   -0.1627 C   0  0  0  0  0  0  0  0  0  0  0  0
   -0.7729   -2.1958    0.6832 C   0  0  0  0  0  0  0  0  0  0  0  0
    0.9352    1.3360   -1.2764 C   0  0  0  0  0  0  0  0  0  0  0  0
    3.8879    1.7776    0.8493 C   0  0  0  0  0  0  0  0  0  0  0  0
   -2.2792   -2.2795    0.9218 C   0  0  0  0  0  0  0  0  0  0  0  0
    1.4166   -1.6209   -1.2455 C   0  0  0  0  0  0  0  0  0  0  0  0
   -0.5322    1.0470   -1.1526 C   0  0  0  0  0  0  0  0  0  0  0  0
    6.1610    0.6613    1.0163 C   0  0  2  0  0  0  0  0  0  0  0  0
   -3.5445    0.8050   -1.2025 C   0  0  2  0  0  0  0  0  0  0  0  0
    3.7079    1.6733   -1.6569 C   0  0  0  0  0  0  0  0  0  0  0  0
   -0.3382   -0.1037    1.9966 C   0  0  0  0  0  0  0  0  0  0  0  0
    5.3973    1.9828    0.9519 C   0  0  0  0  0  0  0  0  0  0  0  0
   -4.6143   -1.6273    0.2023 C   0  0  2  0  0  0  0  0  0  0  0  0
   -5.0451    0.6778   -0.8550 C   0  0  1  0  0  0  0  0  0  0  0  0
   -5.5211   -0.7701   -0.6888 C   0  0  0  0  0  0  0  0  0  0  0  0
   -2.8834   -2.3230   -1.5090 C   0  0  0  0  0  0  0  0  0  0  0  0
    6.5138   -1.6720    0.1179 C   0  0  0  0  0  0  0  0  0  0  0  0
    6.5071    0.1825   -1.4794 C   0  0  0  0  0  0  0  0  0  0  0  0
   -3.3639    0.5601   -2.7130 C   0  0  0  0  0  0  0  0  0  0  0  0
   -5.4022    1.4950    0.3560 C   0  0  0  0  0  0  0  0  0  0  0  0
   -7.2228    2.1420    1.7164 C   0  0  0  0  0  0  0  0  0  0  0  0
    1.5754    1.2465    0.7110 H   0  0  0  0  0  0  0  0  0  0  0  0
    4.1146   -0.9435   -1.2789 H   0  0  0  0  0  0  0  0  0  0  0  0
    1.9205   -2.3680    1.4327 H   0  0  0  0  0  0  0  0  0  0  0  0
    2.2008   -0.7548    2.0407 H   0  0  0  0  0  0  0  0  0  0  0  0
   -2.8496    0.3461    0.7459 H   0  0  0  0  0  0  0  0  0  0  0  0
    4.2818   -1.3597    1.6880 H   0  0  0  0  0  0  0  0  0  0  0  0
    3.9158   -2.4665    0.3847 H   0  0  0  0  0  0  0  0  0  0  0  0
   -0.2754   -2.7244    1.5055 H   0  0  0  0  0  0  0  0  0  0  0  0
   -0.5480   -2.7781   -0.2142 H   0  0  0  0  0  0  0  0  0  0  0  0
    1.2396    1.0229   -2.2811 H   0  0  0  0  0  0  0  0  0  0  0  0
    1.0491    2.4253   -1.2198 H   0  0  0  0  0  0  0  0  0  0  0  0
    3.5488    1.3265    1.7911 H   0  0  0  0  0  0  0  0  0  0  0  0
    3.4049    2.7619    0.7917 H   0  0  0  0  0  0  0  0  0  0  0  0
   -2.5698   -3.3373    0.9714 H   0  0  0  0  0  0  0  0  0  0  0  0
   -2.5038   -1.8701    1.9128 H   0  0  0  0  0  0  0  0  0  0  0  0
    2.2481   -1.3318   -1.8886 H   0  0  0  0  0  0  0  0  0  0  0  0
    1.5350   -2.6869   -1.0216 H   0  0  0  0  0  0  0  0  0  0  0  0
    0.5243   -1.5173   -1.8710 H   0  0  0  0  0  0  0  0  0  0  0  0
   -1.1412    1.6959   -1.7722 H   0  0  0  0  0  0  0  0  0  0  0  0
   -3.2517    1.8525   -1.0408 H   0  0  0  0  0  0  0  0  0  0  0  0
    5.8944    0.1670    1.9585 H   0  0  0  0  0  0  0  0  0  0  0  0
    4.7306    2.0268   -1.7417 H   0  0  0  0  0  0  0  0  0  0  0  0
    3.4990    1.0589   -2.5388 H   0  0  0  0  0  0  0  0  0  0  0  0
    3.1147    2.5908   -1.7214 H   0  0  0  0  0  0  0  0  0  0  0  0
    0.0700    0.9095    2.0417 H   0  0  0  0  0  0  0  0  0  0  0  0
   -1.3765   -0.0180    2.3326 H   0  0  0  0  0  0  0  0  0  0  0  0
    0.1704   -0.7079    2.7547 H   0  0  0  0  0  0  0  0  0  0  0  0
    5.7683    2.6044    0.1300 H   0  0  0  0  0  0  0  0  0  0  0  0
    5.6157    2.5658    1.8563 H   0  0  0  0  0  0  0  0  0  0  0  0
   -4.9518   -2.6702    0.1548 H   0  0  0  0  0  0  0  0  0  0  0  0
   -5.6204    1.1380   -1.6719 H   0  0  0  0  0  0  0  0  0  0  0  0
   -6.5440   -0.8037   -0.2951 H   0  0  0  0  0  0  0  0  0  0  0  0
   -5.5804   -1.2321   -1.6809 H   0  0  0  0  0  0  0  0  0  0  0  0
   -3.6319   -2.0895   -2.2664 H   0  0  0  0  0  0  0  0  0  0  0  0
   -1.9022   -2.1190   -1.9472 H   0  0  0  0  0  0  0  0  0  0  0  0
   -2.9522   -3.4058   -1.3486 H   0  0  0  0  0  0  0  0  0  0  0  0
    6.2450   -2.0827    1.0958 H   0  0  0  0  0  0  0  0  0  0  0  0
    6.2367   -2.4045   -0.6487 H   0  0  0  0  0  0  0  0  0  0  0  0
    7.6075   -1.5922    0.1177 H   0  0  0  0  0  0  0  0  0  0  0  0
    7.5638   -0.1092   -1.5240 H   0  0  0  0  0  0  0  0  0  0  0  0
    6.0206   -0.2547   -2.3576 H   0  0  0  0  0  0  0  0  0  0  0  0
    6.5195    1.2675   -1.5853 H   0  0  0  0  0  0  0  0  0  0  0  0
   -2.3541    0.2460   -2.9849 H   0  0  0  0  0  0  0  0  0  0  0  0
   -4.0577   -0.1875   -3.1058 H   0  0  0  0  0  0  0  0  0  0  0  0
   -3.5774    1.4863   -3.2599 H   0  0  0  0  0  0  0  0  0  0  0  0
    7.7034    1.5028    1.8755 H   0  0  0  0  0  0  0  0  0  0  0  0
   -5.7390   -1.3239    1.7770 H   0  0  0  0  0  0  0  0  0  0  0  0
   -7.0251    3.2102    1.5859 H   0  0  0  0  0  0  0  0  0  0  0  0
   -6.7555    1.7711    2.6337 H   0  0  0  0  0  0  0  0  0  0  0  0
   -8.3032    1.9908    1.7868 H   0  0  0  0  0  0  0  0  0  0  0  0
  1 22  1  0  0  0  0
  1 81  1  0  0  0  0
  2 27  1  0  0  0  0
  2 82  1  0  0  0  0
  3 34  1  0  0  0  0
  3 35  1  0  0  0  0
  4 34  2  0  0  0  0
  5  6  1  0  0  0  0
  5  8  1  0  0  0  0
  5 10  1  0  0  0  0
  5 20  1  0  0  0  0
  6  7  1  0  0  0  0
  6 17  1  0  0  0  0
  6 36  1  0  0  0  0
  7  9  1  0  0  0  0
  7 18  1  0  0  0  0
  7 24  1  0  0  0  0
  8 11  1  0  0  0  0
  8 16  1  0  0  0  0
  8 25  1  0  0  0  0
  9 13  1  0  0  0  0
  9 15  1  0  0  0  0
  9 37  1  0  0  0  0
 10 13  1  0  0  0  0
 10 38  1  0  0  0  0
 10 39  1  0  0  0  0
 11 12  1  0  0  0  0
 11 21  2  0  0  0  0
 12 14  1  0  0  0  0
 12 23  1  0  0  0  0
 12 40  1  0  0  0  0
 13 41  1  0  0  0  0
 13 42  1  0  0  0  0
 14 19  1  0  0  0  0
 14 27  1  0  0  0  0
 14 30  1  0  0  0  0
 15 22  1  0  0  0  0
 15 31  1  0  0  0  0
 15 32  1  0  0  0  0
 16 19  1  0  0  0  0
 16 43  1  0  0  0  0
 16 44  1  0  0  0  0
 17 21  1  0  0  0  0
 17 45  1  0  0  0  0
 17 46  1  0  0  0  0
 18 26  1  0  0  0  0
 18 47  1  0  0  0  0
 18 48  1  0  0  0  0
 19 49  1  0  0  0  0
 19 50  1  0  0  0  0
 20 51  1  0  0  0  0
 20 52  1  0  0  0  0
 20 53  1  0  0  0  0
 21 54  1  0  0  0  0
 22 26  1  0  0  0  0
 22 56  1  0  0  0  0
 23 28  1  0  0  0  0
 23 33  1  0  0  0  0
 23 55  1  0  0  0  0
 24 57  1  0  0  0  0
 24 58  1  0  0  0  0
 24 59  1  0  0  0  0
 25 60  1  0  0  0  0
 25 61  1  0  0  0  0
 25 62  1  0  0  0  0
 26 63  1  0  0  0  0
 26 64  1  0  0  0  0
 27 29  1  0  0  0  0
 27 65  1  0  0  0  0
 28 29  1  0  0  0  0
 28 34  1  0  0  0  0
 28 66  1  0  0  0  0
 29 67  1  0  0  0  0
 29 68  1  0  0  0  0
 30 69  1  0  0  0  0
 30 70  1  0  0  0  0
 30 71  1  0  0  0  0
 31 72  1  0  0  0  0
 31 73  1  0  0  0  0
 31 74  1  0  0  0  0
 32 75  1  0  0  0  0
 32 76  1  0  0  0  0
 32 77  1  0  0  0  0
 33 78  1  0  0  0  0
 33 79  1  0  0  0  0
 33 80  1  0  0  0  0
 35 83  1  0  0  0  0
 35 84  1  0  0  0  0
 35 85  1  0  0  0  0
M  END
> <PUBCHEM_COMPOUND_CID>
129521

> <PUBCHEM_CONFORMER_RMSD>
0.8

> <PUBCHEM_CONFORMER_DIVERSEORDER>
1
3
2
5
4

> <PUBCHEM_MMFF94_PARTIAL_CHARGES>
17
1 -0.68
11 -0.28
12 0.14
17 0.14
2 -0.68
21 -0.29
22 0.28
27 0.28
28 0.06
3 -0.43
34 0.66
35 0.28
4 -0.57
54 0.15
8 0.14
81 0.4
82 0.4

> <PUBCHEM_EFFECTIVE_ROTOR_COUNT>
4.6

> <PUBCHEM_PHARMACOPHORE_FEATURES>
11
1 1 acceptor
1 1 donor
1 2 acceptor
1 2 donor
1 4 acceptor
3 15 31 32 hydrophobe
6 12 14 23 27 28 29 rings
6 5 6 7 9 10 13 rings
6 5 6 8 11 17 21 rings
6 7 9 15 18 22 26 rings
6 8 11 12 14 16 19 rings

> <PUBCHEM_HEAVY_ATOM_COUNT>
35

> <PUBCHEM_ATOM_DEF_STEREO_COUNT>
10

> <PUBCHEM_ATOM_UDEF_STEREO_COUNT>
1

> <PUBCHEM_BOND_DEF_STEREO_COUNT>
0

> <PUBCHEM_BOND_UDEF_STEREO_COUNT>
0

> <PUBCHEM_ISOTOPIC_ATOM_COUNT>
0

> <PUBCHEM_COMPONENT_COUNT>
1

> <PUBCHEM_CACTVS_TAUTO_COUNT>
1

> <PUBCHEM_CONFORMER_ID>
0001F9F100000001

> <PUBCHEM_MMFF94_ENERGY>
166.7592

> <PUBCHEM_FEATURE_SELFOVERLAP>
55.901

> <PUBCHEM_SHAPE_FINGERPRINT>
10 15 16660368077807795181
10906281 52 18041574593378960222
11456790 92 18338513041788366544
11578080 2 18198617937979644632
11646440 116 17967817128257382196
12236239 1 18273210898219242062
12422481 6 18040157314047232055
12633257 1 17385997421052159020
12788726 201 16773519850298933451
13690498 29 16987138634732308887
13782708 43 18129944614682924622
13914758 101 17489310750201565824
14394314 77 18340772529810678897
14790565 3 18114184141868611247
14856354 85 18341898519657678799
15021287 119 16805604780449666948
15131766 46 16556473133205133784
15183329 4 17967812760575828982
15788980 27 18412824720098363230
16112460 7 18262801744208265633
18608769 82 16950574293513293547
20511986 3 18339631291693718323
21033648 29 18129649911712597816
21130935 74 18411417319714590242
21267235 1 17968100849464818362
21756936 100 18273493460566639461
23198884 109 18202842154389640239
23522609 53 17969529080989461524
23559900 14 18337945788182735648
23569914 2 17126151972200889608
23569943 247 17751909238631589746
24771293 8 18262511633039493580
3004659 81 17530965804914135020
3009799 131 14261346934302430913
3178227 256 17386013853254629168
3383291 50 17822855406638860691
350125 39 18259704497636849420
3680242 22 17603857897817108978
392239 28 17240484732233184093
404807 14 17478620010068033430
4073 2 18261955266943441330
4093350 32 17988927730462801214
4098825 35 18131634465644666383
44802255 64 16559030489507730725
5104073 3 18260826007749726851
5385378 56 18261111816211509682
59755656 215 18333728014434277318
59755656 520 18411980243934468223
6081469 158 11819284377984522897
6086070 43 17917988412263495352
7226269 152 18202566146927702129

> <PUBCHEM_SHAPE_MULTIPOLES>
696.81
18.06
2.41
1.76
4.89
0.3
0.35
-6.61
-3.87
-1.36
-0.39
-0.96
-0.38
-0.71

> <PUBCHEM_SHAPE_SELFOVERLAP>
1471.974

> <PUBCHEM_SHAPE_VOLUME>
386.5

> <PUBCHEM_COORDINATE_TYPE>
2
5
10

$$$$
