101691231
  -OEChem-09122011443D

 50 52  0     1  0  0  0  0  0999 V2000
    4.8116    0.9473    1.3348 O   0  0  0  0  0  0  0  0  0  0  0  0
   -2.9919   -2.2044    0.2849 O   0  0  0  0  0  0  0  0  0  0  0  0
    1.8053   -0.6363    0.0977 C   0  0  2  0  0  0  0  0  0  0  0  0
    1.0465    0.6009   -0.5140 C   0  0  2  0  0  0  0  0  0  0  0  0
    3.3723   -0.5841    0.1136 C   0  0  0  0  0  0  0  0  0  0  0  0
    1.6110    1.8696    0.1801 C   0  0  0  0  0  0  0  0  0  0  0  0
    1.2299   -1.9376   -0.4863 C   0  0  0  0  0  0  0  0  0  0  0  0
   -0.4718    0.4356   -0.2582 C   0  0  0  0  0  0  0  0  0  0  0  0
    3.1201    2.0095    0.0522 C   0  0  0  0  0  0  0  0  0  0  0  0
    3.8332    0.7991    0.5993 C   0  0  0  0  0  0  0  0  0  0  0  0
   -0.2264   -2.1084   -0.0656 C   0  0  0  0  0  0  0  0  0  0  0  0
    1.1785    0.7538   -2.0479 C   0  0  0  0  0  0  0  0  0  0  0  0
   -1.0461   -0.8441   -0.0955 C   0  0  0  0  0  0  0  0  0  0  0  0
    4.0522   -0.8722   -1.2327 C   0  0  0  0  0  0  0  0  0  0  0  0
    3.9035   -1.6330    1.1261 C   0  0  0  0  0  0  0  0  0  0  0  0
   -1.3333    1.5516   -0.2557 C   0  0  0  0  0  0  0  0  0  0  0  0
   -2.4342   -0.9699    0.0998 C   0  0  0  0  0  0  0  0  0  0  0  0
   -3.2604    0.1498    0.1143 C   0  0  0  0  0  0  0  0  0  0  0  0
   -2.7096    1.4108   -0.0668 C   0  0  0  0  0  0  0  0  0  0  0  0
   -4.7333    0.0178    0.3185 C   0  0  0  0  0  0  0  0  0  0  0  0
   -5.5412    0.5145   -0.8947 C   0  0  0  0  0  0  0  0  0  0  0  0
   -5.2157    0.7296    1.5960 C   0  0  0  0  0  0  0  0  0  0  0  0
    1.5268   -0.6380    1.1663 H   0  0  0  0  0  0  0  0  0  0  0  0
    1.3444    1.8499    1.2460 H   0  0  0  0  0  0  0  0  0  0  0  0
    1.1643    2.7810   -0.2335 H   0  0  0  0  0  0  0  0  0  0  0  0
    1.7803   -2.8197   -0.1457 H   0  0  0  0  0  0  0  0  0  0  0  0
    1.3057   -1.9429   -1.5787 H   0  0  0  0  0  0  0  0  0  0  0  0
    3.4449    2.8880    0.6220 H   0  0  0  0  0  0  0  0  0  0  0  0
    3.4328    2.1651   -0.9842 H   0  0  0  0  0  0  0  0  0  0  0  0
   -0.2480   -2.4964    0.9614 H   0  0  0  0  0  0  0  0  0  0  0  0
   -0.6810   -2.8677   -0.7138 H   0  0  0  0  0  0  0  0  0  0  0  0
    0.7708   -0.1050   -2.5911 H   0  0  0  0  0  0  0  0  0  0  0  0
    0.6220    1.6314   -2.4020 H   0  0  0  0  0  0  0  0  0  0  0  0
    2.2044    0.8996   -2.3803 H   0  0  0  0  0  0  0  0  0  0  0  0
    3.6803   -2.6578    0.8154 H   0  0  0  0  0  0  0  0  0  0  0  0
    3.7024   -1.8096   -1.6758 H   0  0  0  0  0  0  0  0  0  0  0  0
    5.1383   -0.9625   -1.1038 H   0  0  0  0  0  0  0  0  0  0  0  0
    3.4730   -1.4764    2.1219 H   0  0  0  0  0  0  0  0  0  0  0  0
    4.9930   -1.5696    1.2364 H   0  0  0  0  0  0  0  0  0  0  0  0
    3.9143   -0.0733   -1.9613 H   0  0  0  0  0  0  0  0  0  0  0  0
   -0.9509    2.5553   -0.4167 H   0  0  0  0  0  0  0  0  0  0  0  0
   -3.3282    2.3041   -0.0707 H   0  0  0  0  0  0  0  0  0  0  0  0
   -5.0262   -1.0305    0.4346 H   0  0  0  0  0  0  0  0  0  0  0  0
   -3.5724   -2.1643    1.0638 H   0  0  0  0  0  0  0  0  0  0  0  0
   -4.6703    0.3645    2.4735 H   0  0  0  0  0  0  0  0  0  0  0  0
   -5.2275   -0.0017   -1.8089 H   0  0  0  0  0  0  0  0  0  0  0  0
   -6.2821    0.5413    1.7614 H   0  0  0  0  0  0  0  0  0  0  0  0
   -5.4182    1.5906   -1.0577 H   0  0  0  0  0  0  0  0  0  0  0  0
   -5.0754    1.8145    1.5402 H   0  0  0  0  0  0  0  0  0  0  0  0
   -6.6099    0.3215   -0.7501 H   0  0  0  0  0  0  0  0  0  0  0  0
  1 10  2  0  0  0  0
  2 17  1  0  0  0  0
  2 44  1  0  0  0  0
  3  4  1  0  0  0  0
  3  5  1  0  0  0  0
  3  7  1  0  0  0  0
  3 23  1  0  0  0  0
  4  6  1  0  0  0  0
  4  8  1  0  0  0  0
  4 12  1  0  0  0  0
  5 10  1  0  0  0  0
  5 14  1  0  0  0  0
  5 15  1  0  0  0  0
  6  9  1  0  0  0  0
  6 24  1  0  0  0  0
  6 25  1  0  0  0  0
  7 11  1  0  0  0  0
  7 26  1  0  0  0  0
  7 27  1  0  0  0  0
  8 13  2  0  0  0  0
  8 16  1  0  0  0  0
  9 10  1  0  0  0  0
  9 28  1  0  0  0  0
  9 29  1  0  0  0  0
 11 13  1  0  0  0  0
 11 30  1  0  0  0  0
 11 31  1  0  0  0  0
 12 32  1  0  0  0  0
 12 33  1  0  0  0  0
 12 34  1  0  0  0  0
 13 17  1  0  0  0  0
 14 36  1  0  0  0  0
 14 37  1  0  0  0  0
 14 40  1  0  0  0  0
 15 35  1  0  0  0  0
 15 38  1  0  0  0  0
 15 39  1  0  0  0  0
 16 19  2  0  0  0  0
 16 41  1  0  0  0  0
 17 18  2  0  0  0  0
 18 19  1  0  0  0  0
 18 20  1  0  0  0  0
 19 42  1  0  0  0  0
 20 21  1  0  0  0  0
 20 22  1  0  0  0  0
 20 43  1  0  0  0  0
 21 46  1  0  0  0  0
 21 48  1  0  0  0  0
 21 50  1  0  0  0  0
 22 45  1  0  0  0  0
 22 47  1  0  0  0  0
 22 49  1  0  0  0  0
M  END
> <PUBCHEM_COMPOUND_CID>
101691231

> <PUBCHEM_CONFORMER_RMSD>
0.6

> <PUBCHEM_CONFORMER_DIVERSEORDER>
1
2

> <PUBCHEM_MMFF94_PARTIAL_CHARGES>
17
1 -0.57
10 0.45
11 0.14
13 -0.14
16 -0.15
17 0.08
18 -0.14
19 -0.15
2 -0.53
20 0.14
4 0.14
41 0.15
42 0.15
44 0.45
5 0.06
8 -0.14
9 0.06

> <PUBCHEM_EFFECTIVE_ROTOR_COUNT>
2

> <PUBCHEM_PHARMACOPHORE_FEATURES>
7
1 1 acceptor
1 2 donor
3 20 21 22 hydrophobe
3 5 14 15 hydrophobe
6 3 4 5 6 9 10 rings
6 3 4 7 8 11 13 rings
6 8 13 16 17 18 19 rings

> <PUBCHEM_HEAVY_ATOM_COUNT>
22

> <PUBCHEM_ATOM_DEF_STEREO_COUNT>
2

> <PUBCHEM_ATOM_UDEF_STEREO_COUNT>
0

> <PUBCHEM_BOND_DEF_STEREO_COUNT>
0

> <PUBCHEM_BOND_UDEF_STEREO_COUNT>
0

> <PUBCHEM_ISOTOPIC_ATOM_COUNT>
0

> <PUBCHEM_COMPONENT_COUNT>
1

> <PUBCHEM_CACTVS_TAUTO_COUNT>
58

> <PUBCHEM_CONFORMER_ID>
060FAF5F00000001

> <PUBCHEM_MMFF94_ENERGY>
81.5032

> <PUBCHEM_FEATURE_SELFOVERLAP>
35.557

> <PUBCHEM_SHAPE_FINGERPRINT>
10967382 1 18410575076094249926
11132069 177 18408885152729558255
12011746 2 18410578366550973334
12236239 1 17240489104441215966
12251169 10 18335696161385001800
12403259 415 18409730621084023036
12592029 89 18335704905606295995
12633257 1 18412262809310671787
128620 24 11455892459924342357
13140716 1 18337114557017714179
13224815 77 18335144227695575687
13583140 156 15841261648936141990
13675066 3 17894915144070430073
14341114 176 18410295796141408720
14341114 328 17775569723780296369
14787075 74 18202274819068965937
14790565 3 17613444754254023676
15196674 1 18410855503246860679
15209294 21 17987810609711763377
15238133 3 17131844122749167553
15375358 24 18408603660805151927
15536298 74 18342740723604259070
15788980 27 17822010913299629741
16945 1 18338231557804833086
17349148 13 18410571773765520349
17804303 29 18336268950892097182
1813 80 16805602547504301708
18186145 218 18342177752202329580
200 152 18060129947588335749
20028762 73 18201992227296153847
20691752 17 17603860160848447406
21033648 29 18189034474378411853
21267235 1 18337117773821598602
21756936 100 17482540190439397008
22182313 1 18042967563131698197
22854114 59 18412261731294940297
23184049 59 18335419071163601566
23402539 116 18272080579313473405
23558518 356 17760922240212144160
23559900 14 18271820029243043982
296302 2 16845294951362879217
335352 9 18410575054698872894
34797466 226 15410614843511966817
34934 24 18409721864151894055
350125 39 18335708208446851740
351380 180 18342171176697264989
3680242 22 18338238167569500571
465052 167 17749401342348588755
474 4 18343300400608121025
5104073 3 18411419548438126843
542803 24 17132115727991024217
58807428 26 18335137596250747067
633830 44 18131633387196100606
69090 78 18342453751217193631
7364860 26 18271250421610616478
7495541 125 14635161156344779197
9709674 26 18338802333009663718

> <PUBCHEM_SHAPE_MULTIPOLES>
441.01
10.3
2.13
1.21
7.13
0.38
-0.16
-1.17
2.56
-0.89
0.1
-0.31
-0.16
0.13

> <PUBCHEM_SHAPE_SELFOVERLAP>
940.224

> <PUBCHEM_SHAPE_VOLUME>
243.9

> <PUBCHEM_COORDINATE_TYPE>
2
5
10

$$$$
