100929735
  -OEChem-09122010113D

 52 54  0     1  0  0  0  0  0999 V2000
    3.8215   -1.8629    0.0893 O   0  0  0  0  0  0  0  0  0  0  0  0
   -5.4114   -1.4201   -0.8907 O   0  0  0  0  0  0  0  0  0  0  0  0
   -5.8951   -0.3160    1.0528 O   0  0  0  0  0  0  0  0  0  0  0  0
   -0.8205   -0.2036   -0.3255 C   0  0  2  0  0  0  0  0  0  0  0  0
   -1.6350    1.0267    0.2212 C   0  0  1  0  0  0  0  0  0  0  0  0
   -1.3266   -1.4373    0.4643 C   0  0  0  0  0  0  0  0  0  0  0  0
   -1.1576    2.3037   -0.4939 C   0  0  0  0  0  0  0  0  0  0  0  0
    0.6863    0.0470   -0.1448 C   0  0  0  0  0  0  0  0  0  0  0  0
   -3.1571    0.8144    0.2340 C   0  0  0  0  0  0  0  0  0  0  0  0
    0.3087    2.5802   -0.1665 C   0  0  0  0  0  0  0  0  0  0  0  0
   -2.8244   -1.6840    0.2701 C   0  0  0  0  0  0  0  0  0  0  0  0
    1.1960    1.3628   -0.1137 C   0  0  0  0  0  0  0  0  0  0  0  0
   -1.0371   -0.4416   -1.8447 C   0  0  0  0  0  0  0  0  0  0  0  0
   -3.6649   -0.4370    0.2390 C   0  0  0  0  0  0  0  0  0  0  0  0
    1.6028   -1.0208   -0.0885 C   0  0  0  0  0  0  0  0  0  0  0  0
    2.5810    1.5743    0.0151 C   0  0  0  0  0  0  0  0  0  0  0  0
   -3.9938    2.0660    0.3420 C   0  0  0  0  0  0  0  0  0  0  0  0
    3.4649    0.5020    0.0892 C   0  0  0  0  0  0  0  0  0  0  0  0
    2.9756   -0.7959    0.0334 C   0  0  0  0  0  0  0  0  0  0  0  0
   -5.1149   -0.7000    0.2076 C   0  0  0  0  0  0  0  0  0  0  0  0
    4.9280    0.7654    0.2220 C   0  0  0  0  0  0  0  0  0  0  0  0
    5.7334    0.2243   -0.9740 C   0  0  0  0  0  0  0  0  0  0  0  0
    5.5081    0.2122    1.5370 C   0  0  0  0  0  0  0  0  0  0  0  0
    3.2324   -3.1600    0.0253 C   0  0  0  0  0  0  0  0  0  0  0  0
   -1.3741    1.1571    1.2850 H   0  0  0  0  0  0  0  0  0  0  0  0
   -1.1188   -1.2977    1.5345 H   0  0  0  0  0  0  0  0  0  0  0  0
   -0.8096   -2.3585    0.1741 H   0  0  0  0  0  0  0  0  0  0  0  0
   -1.7275    3.1859   -0.1825 H   0  0  0  0  0  0  0  0  0  0  0  0
   -1.2998    2.2225   -1.5773 H   0  0  0  0  0  0  0  0  0  0  0  0
    0.3586    3.0662    0.8169 H   0  0  0  0  0  0  0  0  0  0  0  0
    0.7023    3.2932   -0.9013 H   0  0  0  0  0  0  0  0  0  0  0  0
   -3.1729   -2.3447    1.0739 H   0  0  0  0  0  0  0  0  0  0  0  0
   -2.9666   -2.2354   -0.6682 H   0  0  0  0  0  0  0  0  0  0  0  0
   -2.0948   -0.4512   -2.1241 H   0  0  0  0  0  0  0  0  0  0  0  0
   -0.6096   -1.4037   -2.1533 H   0  0  0  0  0  0  0  0  0  0  0  0
   -0.5487    0.3242   -2.4580 H   0  0  0  0  0  0  0  0  0  0  0  0
    1.1962   -2.0201   -0.1697 H   0  0  0  0  0  0  0  0  0  0  0  0
    2.9576    2.5947    0.0562 H   0  0  0  0  0  0  0  0  0  0  0  0
   -3.9180    2.6539   -0.5785 H   0  0  0  0  0  0  0  0  0  0  0  0
   -5.0569    1.8783    0.5021 H   0  0  0  0  0  0  0  0  0  0  0  0
   -3.6515    2.6771    1.1840 H   0  0  0  0  0  0  0  0  0  0  0  0
    5.0925    1.8515    0.2419 H   0  0  0  0  0  0  0  0  0  0  0  0
    5.7631   -0.8682   -1.0126 H   0  0  0  0  0  0  0  0  0  0  0  0
    6.7710    0.5722   -0.9160 H   0  0  0  0  0  0  0  0  0  0  0  0
    5.3149    0.5839   -1.9207 H   0  0  0  0  0  0  0  0  0  0  0  0
    5.5199   -0.8809    1.5731 H   0  0  0  0  0  0  0  0  0  0  0  0
    4.9327    0.5710    2.3977 H   0  0  0  0  0  0  0  0  0  0  0  0
    6.5425    0.5508    1.6638 H   0  0  0  0  0  0  0  0  0  0  0  0
   -6.3696   -1.6202   -0.9539 H   0  0  0  0  0  0  0  0  0  0  0  0
    2.5706   -3.3481    0.8777 H   0  0  0  0  0  0  0  0  0  0  0  0
    4.0494   -3.8860    0.0955 H   0  0  0  0  0  0  0  0  0  0  0  0
    2.7396   -3.3336   -0.9374 H   0  0  0  0  0  0  0  0  0  0  0  0
  1 19  1  0  0  0  0
  1 24  1  0  0  0  0
  2 20  1  0  0  0  0
  2 49  1  0  0  0  0
  3 20  2  0  0  0  0
  4  5  1  0  0  0  0
  4  6  1  0  0  0  0
  4  8  1  0  0  0  0
  4 13  1  0  0  0  0
  5  7  1  0  0  0  0
  5  9  1  0  0  0  0
  5 25  1  0  0  0  0
  6 11  1  0  0  0  0
  6 26  1  0  0  0  0
  6 27  1  0  0  0  0
  7 10  1  0  0  0  0
  7 28  1  0  0  0  0
  7 29  1  0  0  0  0
  8 12  1  0  0  0  0
  8 15  2  0  0  0  0
  9 14  2  0  0  0  0
  9 17  1  0  0  0  0
 10 12  1  0  0  0  0
 10 30  1  0  0  0  0
 10 31  1  0  0  0  0
 11 14  1  0  0  0  0
 11 32  1  0  0  0  0
 11 33  1  0  0  0  0
 12 16  2  0  0  0  0
 13 34  1  0  0  0  0
 13 35  1  0  0  0  0
 13 36  1  0  0  0  0
 14 20  1  0  0  0  0
 15 19  1  0  0  0  0
 15 37  1  0  0  0  0
 16 18  1  0  0  0  0
 16 38  1  0  0  0  0
 17 39  1  0  0  0  0
 17 40  1  0  0  0  0
 17 41  1  0  0  0  0
 18 19  2  0  0  0  0
 18 21  1  0  0  0  0
 21 22  1  0  0  0  0
 21 23  1  0  0  0  0
 21 42  1  0  0  0  0
 22 43  1  0  0  0  0
 22 44  1  0  0  0  0
 22 45  1  0  0  0  0
 23 46  1  0  0  0  0
 23 47  1  0  0  0  0
 23 48  1  0  0  0  0
 24 50  1  0  0  0  0
 24 51  1  0  0  0  0
 24 52  1  0  0  0  0
M  END
> <PUBCHEM_COMPOUND_CID>
100929735

> <PUBCHEM_CONFORMER_RMSD>
0.6

> <PUBCHEM_CONFORMER_DIVERSEORDER>
3
6
7
2
10
4
5
1
8
9

> <PUBCHEM_MMFF94_PARTIAL_CHARGES>
22
1 -0.36
10 0.14
11 0.14
12 -0.14
14 -0.12
15 -0.15
16 -0.15
17 0.14
18 -0.14
19 0.08
2 -0.65
20 0.71
21 0.14
24 0.28
3 -0.57
37 0.15
38 0.15
4 0.14
49 0.5
5 0.14
8 -0.14
9 -0.28

> <PUBCHEM_EFFECTIVE_ROTOR_COUNT>
3.8

> <PUBCHEM_PHARMACOPHORE_FEATURES>
8
1 1 acceptor
1 2 acceptor
1 3 acceptor
3 2 3 20 anion
3 21 22 23 hydrophobe
6 4 5 6 9 11 14 rings
6 4 5 7 8 10 12 rings
6 8 12 15 16 18 19 rings

> <PUBCHEM_HEAVY_ATOM_COUNT>
24

> <PUBCHEM_ATOM_DEF_STEREO_COUNT>
2

> <PUBCHEM_ATOM_UDEF_STEREO_COUNT>
0

> <PUBCHEM_BOND_DEF_STEREO_COUNT>
0

> <PUBCHEM_BOND_UDEF_STEREO_COUNT>
0

> <PUBCHEM_ISOTOPIC_ATOM_COUNT>
0

> <PUBCHEM_COMPONENT_COUNT>
1

> <PUBCHEM_CACTVS_TAUTO_COUNT>
7

> <PUBCHEM_CONFORMER_ID>
060410C700000003

> <PUBCHEM_MMFF94_ENERGY>
84.4665

> <PUBCHEM_FEATURE_SELFOVERLAP>
40.687

> <PUBCHEM_SHAPE_FINGERPRINT>
10 15 18339632447894762704
10366900 7 18335426789657747664
10616163 171 18410578413611198326
10906281 52 18189916338374140194
11578080 2 17169539706064657510
11796584 16 17385439943108755691
11963148 33 18334571386897871498
12011746 2 18408602586999959693
12107183 9 17836652920182950211
12236239 1 17703793651567937119
12507560 40 18342457006427753541
12516196 113 18341332270710320793
12553582 1 18411125961985722788
12596602 18 17060339664421705194
12788726 201 18260264127222257912
12892183 10 18272368637799821920
13140716 1 18122898991917111144
13533116 47 18412262809453544715
13544653 18 18261118465194858115
13862211 1 18336259123827608227
14341114 176 18412553093565993211
14617045 38 18410019840192502314
14787075 74 18260551142880658352
14790565 3 18265904738470205892
14863182 85 18409457985867387006
15196674 1 18338237063710222353
15927050 60 17474396154708414652
16945 1 18193568976453245341
17492 89 18192990418536338738
1813 80 17168151117462989188
18681886 176 18335706074945357924
19141452 34 18130507538728917959
19591789 44 18264770965323371915
19930381 70 18264769848526847803
200 152 18273212019464071661
20028762 73 18130222791325244983
21033648 29 17203034227629233513
21236236 1 18410856530340338261
21267235 1 18410022056099955105
21279426 13 18190457165293898525
21421861 104 17896876561282532994
22224240 67 18271234037164606458
23402539 116 18342172293836999165
23557571 272 18271254850054175596
23559900 14 18264486367937111737
3004659 81 18040719169274687316
335352 9 18409450315356093293
34934 24 18411695461579738412
350125 39 18410296925581092485
3545911 37 18411985762766905490
4214541 1 18410857642320019681
5104073 3 18340205168006836258
59755656 215 18408045104835837902
9709674 26 18408610235973171618

> <PUBCHEM_SHAPE_MULTIPOLES>
476.3
12.14
2.53
1
0.05
0.26
-0.14
2.34
2.04
-0.31
-0.05
-0.23
0.06
-0.12

> <PUBCHEM_SHAPE_SELFOVERLAP>
1016.748

> <PUBCHEM_SHAPE_VOLUME>
264

> <PUBCHEM_COORDINATE_TYPE>
2
5
10

$$$$
