44593364
  -OEChem-09122010163D

 82 87  0     1  0  0  0  0  0999 V2000
   -5.9722    0.4828    0.9965 O   0  0  0  0  0  0  0  0  0  0  0  0
   -7.1951    1.2304   -0.8933 O   0  0  0  0  0  0  0  0  0  0  0  0
    5.7910    1.8883   -1.7941 O   0  0  0  0  0  0  0  0  0  0  0  0
    6.7888    2.6342    0.1148 O   0  0  0  0  0  0  0  0  0  0  0  0
    0.4518   -1.1774    0.3312 C   0  0  2  0  0  0  0  0  0  0  0  0
   -1.6537    0.4684    0.6511 C   0  0  2  0  0  0  0  0  0  0  0  0
   -1.0768   -0.8625    0.0400 C   0  0  2  0  0  0  0  0  0  0  0  0
    1.3520    0.0678   -0.0651 C   0  0  2  0  0  0  0  0  0  0  0  0
   -3.0293    0.7524   -0.1015 C   0  0  1  0  0  0  0  0  0  0  0  0
   -4.0581   -0.4479   -0.1089 C   0  0  2  0  0  0  0  0  0  0  0  0
    2.8633   -0.2342    0.3398 C   0  0  1  0  0  0  0  0  0  0  0  0
   -0.6656    1.6345    0.3674 C   0  0  0  0  0  0  0  0  0  0  0  0
    0.8089    1.3272    0.6776 C   0  0  0  0  0  0  0  0  0  0  0  0
    3.4124   -1.6173   -0.2029 C   0  0  1  0  0  0  0  0  0  0  0  0
   -2.0511   -2.0330    0.2922 C   0  0  0  0  0  0  0  0  0  0  0  0
    0.9082   -2.4169   -0.4998 C   0  0  0  0  0  0  0  0  0  0  0  0
   -3.3756   -1.7885   -0.4256 C   0  0  0  0  0  0  0  0  0  0  0  0
   -5.1691   -0.1056   -1.1359 C   0  0  2  0  0  0  0  0  0  0  0  0
    2.3633   -2.4441   -0.9908 C   0  0  0  0  0  0  0  0  0  0  0  0
   -3.7070    2.0893    0.2944 C   0  0  0  0  0  0  0  0  0  0  0  0
   -5.9065    0.9853   -0.3521 C   0  0  2  0  0  0  0  0  0  0  0  0
   -4.9162   -0.4880    1.1687 C   0  0  0  0  0  0  0  0  0  0  0  0
    0.6052   -1.5706    1.8289 C   0  0  0  0  0  0  0  0  0  0  0  0
    3.8020    0.9592   -0.0075 C   0  0  0  0  0  0  0  0  0  0  0  0
   -1.8545    0.4153    2.1872 C   0  0  0  0  0  0  0  0  0  0  0  0
    1.2803    0.4230   -1.5894 C   0  0  0  0  0  0  0  0  0  0  0  0
   -5.0765    2.2765   -0.3596 C   0  0  0  0  0  0  0  0  0  0  0  0
    4.6291   -1.3712   -1.1403 C   0  0  0  0  0  0  0  0  0  0  0  0
    5.3084    0.7094    0.1931 C   0  0  2  0  0  0  0  0  0  0  0  0
    5.7678   -0.6105   -0.4552 C   0  0  0  0  0  0  0  0  0  0  0  0
    3.9205   -2.5275    0.9524 C   0  0  0  0  0  0  0  0  0  0  0  0
   -6.0901   -1.2730   -1.5266 C   0  0  0  0  0  0  0  0  0  0  0  0
    5.6919    0.7744    1.6778 C   0  0  0  0  0  0  0  0  0  0  0  0
    6.0527    1.8496   -0.4647 C   0  0  0  0  0  0  0  0  0  0  0  0
   -1.1202   -0.7257   -1.0486 H   0  0  0  0  0  0  0  0  0  0  0  0
   -2.7464    0.8865   -1.1588 H   0  0  0  0  0  0  0  0  0  0  0  0
    2.8801   -0.2890    1.4366 H   0  0  0  0  0  0  0  0  0  0  0  0
   -0.7462    1.9393   -0.6833 H   0  0  0  0  0  0  0  0  0  0  0  0
   -0.9542    2.5200    0.9487 H   0  0  0  0  0  0  0  0  0  0  0  0
    1.3831    2.2159    0.3881 H   0  0  0  0  0  0  0  0  0  0  0  0
    0.9581    1.2379    1.7578 H   0  0  0  0  0  0  0  0  0  0  0  0
   -1.6378   -2.9708   -0.0937 H   0  0  0  0  0  0  0  0  0  0  0  0
   -2.2354   -2.2043    1.3553 H   0  0  0  0  0  0  0  0  0  0  0  0
    0.2804   -2.5141   -1.3958 H   0  0  0  0  0  0  0  0  0  0  0  0
    0.7222   -3.3351    0.0737 H   0  0  0  0  0  0  0  0  0  0  0  0
   -3.1779   -1.8357   -1.5054 H   0  0  0  0  0  0  0  0  0  0  0  0
   -4.0467   -2.6277   -0.2049 H   0  0  0  0  0  0  0  0  0  0  0  0
   -4.7557    0.2890   -2.0730 H   0  0  0  0  0  0  0  0  0  0  0  0
    2.6840   -3.4946   -1.0452 H   0  0  0  0  0  0  0  0  0  0  0  0
    2.3648   -2.1366   -2.0433 H   0  0  0  0  0  0  0  0  0  0  0  0
   -3.0703    2.9388    0.0234 H   0  0  0  0  0  0  0  0  0  0  0  0
   -3.8536    2.1488    1.3763 H   0  0  0  0  0  0  0  0  0  0  0  0
   -4.3839   -0.2485    2.0876 H   0  0  0  0  0  0  0  0  0  0  0  0
   -5.3947   -1.4620    1.3177 H   0  0  0  0  0  0  0  0  0  0  0  0
    0.5868   -0.7217    2.5076 H   0  0  0  0  0  0  0  0  0  0  0  0
    1.5474   -2.0684    2.0376 H   0  0  0  0  0  0  0  0  0  0  0  0
   -0.1688   -2.2738    2.1498 H   0  0  0  0  0  0  0  0  0  0  0  0
    3.6235    1.2561   -1.0456 H   0  0  0  0  0  0  0  0  0  0  0  0
    3.5146    1.8332    0.5908 H   0  0  0  0  0  0  0  0  0  0  0  0
   -0.9225    0.5388    2.7388 H   0  0  0  0  0  0  0  0  0  0  0  0
   -2.4802    1.2341    2.5498 H   0  0  0  0  0  0  0  0  0  0  0  0
   -2.3057   -0.5140    2.5350 H   0  0  0  0  0  0  0  0  0  0  0  0
    1.9446   -0.1754   -2.2106 H   0  0  0  0  0  0  0  0  0  0  0  0
    1.5744    1.4650   -1.7654 H   0  0  0  0  0  0  0  0  0  0  0  0
    0.2801    0.3244   -2.0139 H   0  0  0  0  0  0  0  0  0  0  0  0
   -5.6122    3.0726    0.1728 H   0  0  0  0  0  0  0  0  0  0  0  0
   -4.9574    2.6324   -1.3909 H   0  0  0  0  0  0  0  0  0  0  0  0
    5.0203   -2.3273   -1.5126 H   0  0  0  0  0  0  0  0  0  0  0  0
    4.3125   -0.8151   -2.0322 H   0  0  0  0  0  0  0  0  0  0  0  0
    6.2254   -1.2622    0.2998 H   0  0  0  0  0  0  0  0  0  0  0  0
    6.5633   -0.4481   -1.1938 H   0  0  0  0  0  0  0  0  0  0  0  0
    4.6175   -3.2867    0.5759 H   0  0  0  0  0  0  0  0  0  0  0  0
    4.4418   -1.9669    1.7305 H   0  0  0  0  0  0  0  0  0  0  0  0
    3.1167   -3.0888    1.4318 H   0  0  0  0  0  0  0  0  0  0  0  0
   -6.5880   -1.7236   -0.6629 H   0  0  0  0  0  0  0  0  0  0  0  0
   -5.5328   -2.0578   -2.0470 H   0  0  0  0  0  0  0  0  0  0  0  0
   -6.8698   -0.9321   -2.2165 H   0  0  0  0  0  0  0  0  0  0  0  0
   -7.4810    2.1158   -0.6130 H   0  0  0  0  0  0  0  0  0  0  0  0
    5.1762    0.0096    2.2639 H   0  0  0  0  0  0  0  0  0  0  0  0
    5.4317    1.7429    2.1222 H   0  0  0  0  0  0  0  0  0  0  0  0
    6.7689    0.6255    1.8223 H   0  0  0  0  0  0  0  0  0  0  0  0
    6.2642    2.6230   -2.2395 H   0  0  0  0  0  0  0  0  0  0  0  0
  1 21  1  0  0  0  0
  1 22  1  0  0  0  0
  2 21  1  0  0  0  0
  2 78  1  0  0  0  0
  3 34  1  0  0  0  0
  3 82  1  0  0  0  0
  4 34  2  0  0  0  0
  5  7  1  0  0  0  0
  5  8  1  0  0  0  0
  5 16  1  0  0  0  0
  5 23  1  0  0  0  0
  6  7  1  0  0  0  0
  6  9  1  0  0  0  0
  6 12  1  0  0  0  0
  6 25  1  0  0  0  0
  7 15  1  0  0  0  0
  7 35  1  0  0  0  0
  8 11  1  0  0  0  0
  8 13  1  0  0  0  0
  8 26  1  0  0  0  0
  9 10  1  0  0  0  0
  9 20  1  0  0  0  0
  9 36  1  0  0  0  0
 10 17  1  0  0  0  0
 10 18  1  0  0  0  0
 10 22  1  0  0  0  0
 11 14  1  0  0  0  0
 11 24  1  0  0  0  0
 11 37  1  0  0  0  0
 12 13  1  0  0  0  0
 12 38  1  0  0  0  0
 12 39  1  0  0  0  0
 13 40  1  0  0  0  0
 13 41  1  0  0  0  0
 14 19  1  0  0  0  0
 14 28  1  0  0  0  0
 14 31  1  0  0  0  0
 15 17  1  0  0  0  0
 15 42  1  0  0  0  0
 15 43  1  0  0  0  0
 16 19  1  0  0  0  0
 16 44  1  0  0  0  0
 16 45  1  0  0  0  0
 17 46  1  0  0  0  0
 17 47  1  0  0  0  0
 18 21  1  0  0  0  0
 18 32  1  0  0  0  0
 18 48  1  0  0  0  0
 19 49  1  0  0  0  0
 19 50  1  0  0  0  0
 20 27  1  0  0  0  0
 20 51  1  0  0  0  0
 20 52  1  0  0  0  0
 21 27  1  0  0  0  0
 22 53  1  0  0  0  0
 22 54  1  0  0  0  0
 23 55  1  0  0  0  0
 23 56  1  0  0  0  0
 23 57  1  0  0  0  0
 24 29  1  0  0  0  0
 24 58  1  0  0  0  0
 24 59  1  0  0  0  0
 25 60  1  0  0  0  0
 25 61  1  0  0  0  0
 25 62  1  0  0  0  0
 26 63  1  0  0  0  0
 26 64  1  0  0  0  0
 26 65  1  0  0  0  0
 27 66  1  0  0  0  0
 27 67  1  0  0  0  0
 28 30  1  0  0  0  0
 28 68  1  0  0  0  0
 28 69  1  0  0  0  0
 29 30  1  0  0  0  0
 29 33  1  0  0  0  0
 29 34  1  0  0  0  0
 30 70  1  0  0  0  0
 30 71  1  0  0  0  0
 31 72  1  0  0  0  0
 31 73  1  0  0  0  0
 31 74  1  0  0  0  0
 32 75  1  0  0  0  0
 32 76  1  0  0  0  0
 32 77  1  0  0  0  0
 33 79  1  0  0  0  0
 33 80  1  0  0  0  0
 33 81  1  0  0  0  0
M  END
> <PUBCHEM_COMPOUND_CID>
44593364

> <PUBCHEM_CONFORMER_RMSD>
0.8

> <PUBCHEM_CONFORMER_DIVERSEORDER>
1
2

> <PUBCHEM_MMFF94_PARTIAL_CHARGES>
10
1 -0.56
2 -0.68
21 0.56
22 0.28
29 0.06
3 -0.65
34 0.66
4 -0.57
78 0.4
82 0.5

> <PUBCHEM_EFFECTIVE_ROTOR_COUNT>
4

> <PUBCHEM_PHARMACOPHORE_FEATURES>
11
1 1 acceptor
1 2 acceptor
1 2 donor
1 3 acceptor
1 4 acceptor
3 3 4 34 anion
6 11 14 24 28 29 30 rings
6 5 6 7 8 12 13 rings
6 5 8 11 14 16 19 rings
6 6 7 9 10 15 17 rings
8 1 9 10 18 20 21 22 27 rings

> <PUBCHEM_HEAVY_ATOM_COUNT>
34

> <PUBCHEM_ATOM_DEF_STEREO_COUNT>
11

> <PUBCHEM_ATOM_UDEF_STEREO_COUNT>
0

> <PUBCHEM_BOND_DEF_STEREO_COUNT>
0

> <PUBCHEM_BOND_UDEF_STEREO_COUNT>
0

> <PUBCHEM_ISOTOPIC_ATOM_COUNT>
0

> <PUBCHEM_COMPONENT_COUNT>
1

> <PUBCHEM_CACTVS_TAUTO_COUNT>
1

> <PUBCHEM_CONFORMER_ID>
02A870D400000001

> <PUBCHEM_MMFF94_ENERGY>
181.8636

> <PUBCHEM_FEATURE_SELFOVERLAP>
55.965

> <PUBCHEM_SHAPE_FINGERPRINT>
10 15 18113621209052965105
10290309 65 18340218452368315995
10366900 7 16415478238099207187
10462674 296 17120003782863254567
10595046 47 18342173349918847463
10835480 77 18409728469395045813
10906281 52 18272384056922442043
11007060 377 18335143107358159811
11135609 187 18342457079917510296
117089 54 17696460068954416183
12236239 1 18410854356469513263
12516196 113 17917708006791598409
12633257 1 14490486282633019867
12788726 201 17203053972084503697
13533116 47 17988927726162461358
13690498 29 17630597037216152599
13811026 1 18410854373633629642
13911987 19 17274826873750920471
14394314 77 18411986828341749561
14528608 73 18343302561350970390
14790565 3 18194686969114039817
14840074 17 17775847908701223557
15082195 135 18342465876400980780
15131766 46 16445610522621996556
15183329 4 18343300345168964087
15238133 3 15285359487807801055
15788980 27 18411136901399378731
15840311 113 18261114049688962045
16993427 108 17100855337463350898
16993438 75 18263085590314164883
17349148 13 18342740672101821675
17980427 23 18040999608794898262
18222031 100 13183018518937876810
18608769 82 18336551620603465523
20511986 3 18409719669043700414
20715895 44 18407760357061885972
21033648 29 17312829276904039283
21033650 10 15122966023201810339
21223535 225 17095788938015724325
22149856 69 18130799932045141507
23522609 53 17774464718631217681
23559900 14 18130496526823187361
23569914 152 16695846904032833948
24771293 8 18334856173452174804
24771750 20 17902804289971040821
249057 25 17774730749464356546
255183 451 17770790014197828886
2838139 119 18411132563376908340
3004659 81 18339079285776013474
335352 9 18412268308029464150
3411729 13 18335137588377970530
34797466 226 17988649562167530566
4073 2 18187650227492528915
4149490 64 18040435473267700699
4169191 19 18187648054423849564
4340502 62 17095521799349534258
5080951 261 15864913295660002491
5104073 3 18262806155298083835
5283173 99 18337108947637652401
59755656 215 18411702054407149118
6328613 192 18413109455008044329
9896288 288 11964760713493916286

> <PUBCHEM_SHAPE_MULTIPOLES>
676.23
17.15
2.65
1.45
1.64
0.23
0.25
-7.59
-3.75
-1.75
-0.24
-0.12
0.08
-0.44

> <PUBCHEM_SHAPE_SELFOVERLAP>
1457.343

> <PUBCHEM_SHAPE_VOLUME>
365.1

> <PUBCHEM_COORDINATE_TYPE>
2
5
10

$$$$
