101905231
  -OEChem-09122011022D

123129  0     1  0  0  0  0  0999 V2000
    8.1097   -1.0983    0.0000 O   0  0  0  0  0  0  0  0  0  0  0  0
    7.1962    0.3084    0.0000 O   0  0  0  0  0  0  0  0  0  0  0  0
    7.0928    1.2811    0.0000 O   0  0  0  0  0  0  0  0  0  0  0  0
    7.6962   -2.5576    0.0000 O   0  0  0  0  0  0  0  0  0  0  0  0
    4.6981    0.9512    0.0000 O   0  0  0  0  0  0  0  0  0  0  0  0
    3.7320    0.3084    0.0000 O   0  0  0  0  0  0  0  0  0  0  0  0
    4.4793   -0.8653    0.0000 O   0  0  0  0  0  0  0  0  0  0  0  0
    6.4497   -3.1844    0.0000 O   0  0  0  0  0  0  0  0  0  0  0  0
    4.5981   -2.1916    0.0000 O   0  0  0  0  0  0  0  0  0  0  0  0
   10.2976   -1.6401    0.0000 O   0  0  0  0  0  0  0  0  0  0  0  0
    8.6494    1.3780    0.0000 O   0  0  0  0  0  0  0  0  0  0  0  0
    7.0323    3.0121    0.0000 O   0  0  0  0  0  0  0  0  0  0  0  0
    2.2406    1.0439    0.0000 O   0  0  0  0  0  0  0  0  0  0  0  0
    4.0553    2.7172    0.0000 O   0  0  0  0  0  0  0  0  0  0  0  0
    3.8867   -2.4928    0.0000 O   0  0  0  0  0  0  0  0  0  0  0  0
    8.3380   -3.3291    0.0000 O   0  0  0  0  0  0  0  0  0  0  0  0
    5.4641   -3.6916    0.0000 O   0  0  0  0  0  0  0  0  0  0  0  0
    6.0583    3.3906    0.0000 O   0  0  0  0  0  0  0  0  0  0  0  0
    9.0443   -2.0501    0.0000 O   0  0  0  0  0  0  0  0  0  0  0  0
    7.9896    4.6509    0.0000 O   0  0  0  0  0  0  0  0  0  0  0  0
    6.3894    3.9881    0.0000 O   0  0  0  0  0  0  0  0  0  0  0  0
    9.1860   -4.8889    0.0000 N   0  0  0  0  0  0  0  0  0  0  0  0
    7.1962   -0.6916    0.0000 C   0  0  1  0  0  0  0  0  0  0  0  0
    6.3301   -0.1916    0.0000 C   0  0  1  0  0  0  0  0  0  0  0  0
    7.3007    0.3029    0.0000 C   0  0  1  0  0  0  0  0  0  0  0  0
    8.2788    0.5108    0.0000 C   0  0  3  0  0  0  0  0  0  0  0  0
    7.1962   -1.6916    0.0000 C   0  0  2  0  0  0  0  0  0  0  0  0
    5.4641    0.3084    0.0000 C   0  0  1  0  0  0  0  0  0  0  0  0
    4.5981   -0.1916    0.0000 C   0  0  1  0  0  0  0  0  0  0  0  0
    5.4641   -0.6916    0.0000 C   0  0  2  0  0  0  0  0  0  0  0  0
    8.7788   -0.3552    0.0000 C   0  0  1  0  0  0  0  0  0  0  0  0
    6.3301   -2.1916    0.0000 C   0  0  2  0  0  0  0  0  0  0  0  0
    5.4641   -1.6916    0.0000 C   0  0  2  0  0  0  0  0  0  0  0  0
    8.1810   -1.8652    0.0000 C   0  0  0  0  0  0  0  0  0  0  0  0
    9.6984   -0.7480    0.0000 C   0  0  0  0  0  0  0  0  0  0  0  0
    7.6548    1.2743    0.0000 C   0  0  0  0  0  0  0  0  0  0  0  0
    7.5622    2.1640    0.0000 C   0  0  0  0  0  0  0  0  0  0  0  0
    3.2320    1.1744    0.0000 C   0  0  0  0  0  0  0  0  0  0  0  0
    4.6981    1.9512    0.0000 C   0  0  0  0  0  0  0  0  0  0  0  0
    3.7132   -1.5079    0.0000 C   0  0  0  0  0  0  0  0  0  0  0  0
    7.3693   -3.5773    0.0000 C   0  0  0  0  0  0  0  0  0  0  0  0
    7.1548    2.1404    0.0000 C   0  0  3  0  0  0  0  0  0  0  0  0
    4.5981   -3.1916    0.0000 C   0  0  0  0  0  0  0  0  0  0  0  0
    3.4909    2.1404    0.0000 C   0  0  3  0  0  0  0  0  0  0  0  0
    7.7418   -4.5053    0.0000 C   0  0  3  0  0  0  0  0  0  0  0  0
    8.5616    2.1990    0.0000 C   0  0  0  0  0  0  0  0  0  0  0  0
    6.1889    2.3992    0.0000 C   0  0  0  0  0  0  0  0  0  0  0  0
    9.9048   -2.5597    0.0000 C   0  0  0  0  0  0  0  0  0  0  0  0
    5.1981    2.8172    0.0000 C   0  0  0  0  0  0  0  0  0  0  0  0
    4.4568    2.3992    0.0000 C   0  0  0  0  0  0  0  0  0  0  0  0
    7.7635    2.9337    0.0000 C   0  0  0  0  0  0  0  0  0  0  0  0
    2.7735   -1.1657    0.0000 C   0  0  0  0  0  0  0  0  0  0  0  0
    5.3228    1.8992    0.0000 C   0  0  0  0  0  0  0  0  0  0  0  0
    8.7317   -4.6468    0.0000 C   0  0  3  0  0  0  0  0  0  0  0  0
    3.7320   -3.6916    0.0000 C   0  0  0  0  0  0  0  0  0  0  0  0
    2.7838    2.8475    0.0000 C   0  0  0  0  0  0  0  0  0  0  0  0
   10.2772   -3.4877    0.0000 C   0  0  0  0  0  0  0  0  0  0  0  0
    7.1243   -5.2919    0.0000 C   0  0  0  0  0  0  0  0  0  0  0  0
    9.3492   -3.8602    0.0000 C   0  0  0  0  0  0  0  0  0  0  0  0
    9.1042   -5.5748    0.0000 C   0  0  0  0  0  0  0  0  0  0  0  0
    7.3808    3.8576    0.0000 C   0  0  0  0  0  0  0  0  0  0  0  0
    2.8660   -3.1916    0.0000 C   0  0  0  0  0  0  0  0  0  0  0  0
    3.7320   -4.6916    0.0000 C   0  0  0  0  0  0  0  0  0  0  0  0
   11.1064   -4.1182    0.0000 C   0  0  0  0  0  0  0  0  0  0  0  0
    2.0000   -3.6916    0.0000 C   0  0  0  0  0  0  0  0  0  0  0  0
    2.8660   -5.1916    0.0000 C   0  0  0  0  0  0  0  0  0  0  0  0
   10.9670   -5.1504    0.0000 C   0  0  0  0  0  0  0  0  0  0  0  0
   10.0003   -5.5384    0.0000 C   0  0  0  0  0  0  0  0  0  0  0  0
    2.0000   -4.6916    0.0000 C   0  0  0  0  0  0  0  0  0  0  0  0
    7.6069    5.5748    0.0000 C   0  0  0  0  0  0  0  0  0  0  0  0
    6.7434    0.5747    0.0000 H   0  0  0  0  0  0  0  0  0  0  0  0
    8.5369    1.0746    0.0000 H   0  0  0  0  0  0  0  0  0  0  0  0
    5.7741    0.8453    0.0000 H   0  0  0  0  0  0  0  0  0  0  0  0
    5.1446   -0.8427    0.0000 H   0  0  0  0  0  0  0  0  0  0  0  0
    5.2520   -0.1090    0.0000 H   0  0  0  0  0  0  0  0  0  0  0  0
    9.3476    0.2765    0.0000 H   0  0  0  0  0  0  0  0  0  0  0  0
    5.5940   -2.6166    0.0000 H   0  0  0  0  0  0  0  0  0  0  0  0
    4.9272   -1.3816    0.0000 H   0  0  0  0  0  0  0  0  0  0  0  0
    8.0733   -2.4758    0.0000 H   0  0  0  0  0  0  0  0  0  0  0  0
    8.7915   -1.9729    0.0000 H   0  0  0  0  0  0  0  0  0  0  0  0
    8.2886   -1.2547    0.0000 H   0  0  0  0  0  0  0  0  0  0  0  0
   10.2976   -0.5888    0.0000 H   0  0  0  0  0  0  0  0  0  0  0  0
    9.3031   -1.2256    0.0000 H   0  0  0  0  0  0  0  0  0  0  0  0
    8.3162   -2.5576    0.0000 H   0  0  0  0  0  0  0  0  0  0  0  0
    7.7734    2.0998    0.0000 H   0  0  0  0  0  0  0  0  0  0  0  0
    3.6513    2.7392    0.0000 H   0  0  0  0  0  0  0  0  0  0  0  0
    7.9727   -5.0807    0.0000 H   0  0  0  0  0  0  0  0  0  0  0  0
    8.5833    1.5794    0.0000 H   0  0  0  0  0  0  0  0  0  0  0  0
    9.1812    2.2207    0.0000 H   0  0  0  0  0  0  0  0  0  0  0  0
    8.5399    2.8186    0.0000 H   0  0  0  0  0  0  0  0  0  0  0  0
    5.7350    2.5072    0.0000 H   0  0  0  0  0  0  0  0  0  0  0  0
    5.5081    3.3541    0.0000 H   0  0  0  0  0  0  0  0  0  0  0  0
    4.6612    3.1272    0.0000 H   0  0  0  0  0  0  0  0  0  0  0  0
    4.8952    2.8376    0.0000 H   0  0  0  0  0  0  0  0  0  0  0  0
    4.1468    2.9361    0.0000 H   0  0  0  0  0  0  0  0  0  0  0  0
    8.1824    2.4766    0.0000 H   0  0  0  0  0  0  0  0  0  0  0  0
    8.2864    3.2668    0.0000 H   0  0  0  0  0  0  0  0  0  0  0  0
    2.9857   -0.5831    0.0000 H   0  0  0  0  0  0  0  0  0  0  0  0
    2.1909   -0.9536    0.0000 H   0  0  0  0  0  0  0  0  0  0  0  0
    2.5614   -1.7483    0.0000 H   0  0  0  0  0  0  0  0  0  0  0  0
    4.9243    1.4242    0.0000 H   0  0  0  0  0  0  0  0  0  0  0  0
    5.7214    1.4242    0.0000 H   0  0  0  0  0  0  0  0  0  0  0  0
    9.3455   -4.7345    0.0000 H   0  0  0  0  0  0  0  0  0  0  0  0
    3.2222    3.2859    0.0000 H   0  0  0  0  0  0  0  0  0  0  0  0
    2.3454    3.2859    0.0000 H   0  0  0  0  0  0  0  0  0  0  0  0
    2.3454    2.4090    0.0000 H   0  0  0  0  0  0  0  0  0  0  0  0
    6.6366   -4.9091    0.0000 H   0  0  0  0  0  0  0  0  0  0  0  0
    6.7415   -5.7796    0.0000 H   0  0  0  0  0  0  0  0  0  0  0  0
    7.6120   -5.6747    0.0000 H   0  0  0  0  0  0  0  0  0  0  0  0
    8.5288   -5.8058    0.0000 H   0  0  0  0  0  0  0  0  0  0  0  0
    9.3351   -6.1502    0.0000 H   0  0  0  0  0  0  0  0  0  0  0  0
    9.6796   -5.3439    0.0000 H   0  0  0  0  0  0  0  0  0  0  0  0
    2.8660   -2.5716    0.0000 H   0  0  0  0  0  0  0  0  0  0  0  0
    4.2690   -5.0016    0.0000 H   0  0  0  0  0  0  0  0  0  0  0  0
   11.6791   -3.8806    0.0000 H   0  0  0  0  0  0  0  0  0  0  0  0
    1.4631   -3.3816    0.0000 H   0  0  0  0  0  0  0  0  0  0  0  0
    2.8660   -5.8116    0.0000 H   0  0  0  0  0  0  0  0  0  0  0  0
   11.4562   -5.5314    0.0000 H   0  0  0  0  0  0  0  0  0  0  0  0
    9.9103   -6.1518    0.0000 H   0  0  0  0  0  0  0  0  0  0  0  0
    1.4631   -5.0016    0.0000 H   0  0  0  0  0  0  0  0  0  0  0  0
    8.1797    5.8121    0.0000 H   0  0  0  0  0  0  0  0  0  0  0  0
    7.3697    6.1476    0.0000 H   0  0  0  0  0  0  0  0  0  0  0  0
    7.0341    5.3376    0.0000 H   0  0  0  0  0  0  0  0  0  0  0  0
 23  1  1  1  0  0  0
  1 31  1  0  0  0  0
 24  2  1  6  0  0  0
  2 36  1  0  0  0  0
  3 25  1  0  0  0  0
  3 37  1  0  0  0  0
 27  4  1  1  0  0  0
  4 84  1  0  0  0  0
 28  5  1  1  0  0  0
  5 39  1  0  0  0  0
  6 29  1  0  0  0  0
  6 38  1  0  0  0  0
 30  7  1  6  0  0  0
  7 40  1  0  0  0  0
  8 32  1  0  0  0  0
  8 41  1  0  0  0  0
 33  9  1  6  0  0  0
  9 43  1  0  0  0  0
 10 35  1  0  0  0  0
 10 48  1  0  0  0  0
 11 36  2  0  0  0  0
 12 37  2  0  0  0  0
 13 38  2  0  0  0  0
 14 39  2  0  0  0  0
 15 40  2  0  0  0  0
 16 41  2  0  0  0  0
 17 43  2  0  0  0  0
 18 47  2  0  0  0  0
 19 48  2  0  0  0  0
 20 61  1  0  0  0  0
 20 70  1  0  0  0  0
 21 61  2  0  0  0  0
 22 59  1  0  0  0  0
 22 68  2  0  0  0  0
 23 24  1  0  0  0  0
 23 25  1  0  0  0  0
 23 27  1  0  0  0  0
 24 28  1  0  0  0  0
 24 30  1  0  0  0  0
 25 26  1  0  0  0  0
 25 71  1  0  0  0  0
 26 29  1  0  0  0  0
 26 31  1  0  0  0  0
 26 72  1  0  0  0  0
 27 32  1  0  0  0  0
 27 34  1  0  0  0  0
 28 29  1  0  0  0  0
 28 73  1  0  0  0  0
 29 74  1  1  0  0  0
 30 33  1  0  0  0  0
 30 75  1  0  0  0  0
 31 35  1  0  0  0  0
 31 76  1  6  0  0  0
 32 33  1  0  0  0  0
 32 77  1  6  0  0  0
 33 78  1  0  0  0  0
 34 79  1  0  0  0  0
 34 80  1  0  0  0  0
 34 81  1  0  0  0  0
 35 82  1  0  0  0  0
 35 83  1  0  0  0  0
 36 42  1  0  0  0  0
 37 46  1  0  0  0  0
 38 44  1  0  0  0  0
 39 49  1  0  0  0  0
 40 52  1  0  0  0  0
 41 45  1  0  0  0  0
 42 47  1  0  0  0  0
 42 51  1  0  0  0  0
 42 85  1  0  0  0  0
 43 55  1  0  0  0  0
 44 50  1  0  0  0  0
 44 56  1  0  0  0  0
 44 86  1  0  0  0  0
 45 54  1  0  0  0  0
 45 58  1  0  0  0  0
 45 87  1  0  0  0  0
 46 88  1  0  0  0  0
 46 89  1  0  0  0  0
 46 90  1  0  0  0  0
 47 53  1  0  0  0  0
 48 57  1  0  0  0  0
 49 91  1  0  0  0  0
 49 92  1  0  0  0  0
 49 93  1  0  0  0  0
 50 53  1  0  0  0  0
 50 94  1  0  0  0  0
 50 95  1  0  0  0  0
 51 61  1  0  0  0  0
 51 96  1  0  0  0  0
 51 97  1  0  0  0  0
 52 98  1  0  0  0  0
 52 99  1  0  0  0  0
 52100  1  0  0  0  0
 53101  1  0  0  0  0
 53102  1  0  0  0  0
 54 59  1  0  0  0  0
 54 60  1  0  0  0  0
 54103  1  0  0  0  0
 55 62  2  0  0  0  0
 55 63  1  0  0  0  0
 56104  1  0  0  0  0
 56105  1  0  0  0  0
 56106  1  0  0  0  0
 57 59  2  0  0  0  0
 57 64  1  0  0  0  0
 58107  1  0  0  0  0
 58108  1  0  0  0  0
 58109  1  0  0  0  0
 60110  1  0  0  0  0
 60111  1  0  0  0  0
 60112  1  0  0  0  0
 62 65  1  0  0  0  0
 62113  1  0  0  0  0
 63 66  2  0  0  0  0
 63114  1  0  0  0  0
 64 67  2  0  0  0  0
 64115  1  0  0  0  0
 65 69  2  0  0  0  0
 65116  1  0  0  0  0
 66 69  1  0  0  0  0
 66117  1  0  0  0  0
 67 68  1  0  0  0  0
 67118  1  0  0  0  0
 68119  1  0  0  0  0
 69120  1  0  0  0  0
 70121  1  0  0  0  0
 70122  1  0  0  0  0
 70123  1  0  0  0  0
M  END
> <PUBCHEM_COMPOUND_CID>
101905231

> <PUBCHEM_COMPOUND_CANONICALIZED>
1

> <PUBCHEM_CACTVS_COMPLEXITY>
2120

> <PUBCHEM_CACTVS_HBOND_ACCEPTOR>
22

> <PUBCHEM_CACTVS_HBOND_DONOR>
1

> <PUBCHEM_CACTVS_ROTATABLE_BOND>
12

> <PUBCHEM_CACTVS_SUBSKEYS>
AAADcfB+PgAAAAAAAAAAAAAAAAAAASAAAAA8YMEABIAAAADBwAAAHgAACAAADVzhngY+iJIIFgCoA7T3TACCgCA1AiAI2CE4bNgJJv7ItZmGcYhn4AHL6cf///6ugAAAAAAAAADCAAYQADCAAAAAAAAAAA==

> <PUBCHEM_IUPAC_OPENEYE_NAME>
[(1S,2R,4S,14S,15S,16S,17S,31S,33S,34R)-2,15,34-triacetoxy-33-hydroxy-11-(2-methoxy-2-oxo-ethyl)-7,20,21,33-tetramethyl-6,10,12,19,28-pentaoxo-5,13,18,29,32-pentaoxa-23-azahexacyclo[15.15.1.14,14.01,14.03,31.022,27]tetratriaconta-22(27),23,25-trien-16-yl] benzoate

> <PUBCHEM_IUPAC_CAS_NAME>
benzoic acid [(1S,2R,4S,14S,15S,16S,17S,31S,33S,34R)-2,15,34-triacetyloxy-33-hydroxy-11-(2-methoxy-2-oxoethyl)-7,20,21,33-tetramethyl-6,10,12,19,28-pentaoxo-5,13,18,29,32-pentaoxa-23-azahexacyclo[15.15.1.14,14.01,14.03,31.022,27]tetratriaconta-22(27),23,25-trien-16-yl] ester

> <PUBCHEM_IUPAC_NAME_MARKUP>
[(1<I>S</I>,2<I>R</I>,4<I>S</I>,14<I>S</I>,15<I>S</I>,16<I>S</I>,17<I>S</I>,31<I>S</I>,33<I>S</I>,34<I>R</I>)-2,15,34-triacetyloxy-33-hydroxy-11-(2-methoxy-2-oxoethyl)-7,20,21,33-tetramethyl-6,10,12,19,28-pentaoxo-5,13,18,29,32-pentaoxa-23-azahexacyclo[15.15.1.1<SUP>4,14</SUP>.0<SUP>1,14</SUP>.0<SUP>3,31</SUP>.0<SUP>22,27</SUP>]tetratriaconta-22(27),23,25-trien-16-yl] benzoate

> <PUBCHEM_IUPAC_NAME>
[(1S,2R,4S,14S,15S,16S,17S,31S,33S,34R)-2,15,34-triacetyloxy-33-hydroxy-11-(2-methoxy-2-oxoethyl)-7,20,21,33-tetramethyl-6,10,12,19,28-pentaoxo-5,13,18,29,32-pentaoxa-23-azahexacyclo[15.15.1.14,14.01,14.03,31.022,27]tetratriaconta-22(27),23,25-trien-16-yl] benzoate

> <PUBCHEM_IUPAC_SYSTEMATIC_NAME>
[(1S,2R,4S,14S,15S,16S,17S,31S,33S,34R)-2,15,34-triacetyloxy-11-(2-methoxy-2-oxidanylidene-ethyl)-7,20,21,33-tetramethyl-33-oxidanyl-6,10,12,19,28-pentakis(oxidanylidene)-5,13,18,29,32-pentaoxa-23-azahexacyclo[15.15.1.14,14.01,14.03,31.022,27]tetratriaconta-22(27),23,25-trien-16-yl] benzoate

> <PUBCHEM_IUPAC_TRADITIONAL_NAME>
benzoic acid [(1S,2R,4S,14S,15S,16S,17S,31S,33S,34R)-2,15,34-triacetoxy-33-hydroxy-6,10,12,19,28-pentaketo-11-(2-keto-2-methoxy-ethyl)-7,20,21,33-tetramethyl-5,13,18,29,32-pentaoxa-23-azahexacyclo[15.15.1.14,14.01,14.03,31.022,27]tetratriaconta-22(27),23,25-trien-16-yl] ester

> <PUBCHEM_IUPAC_INCHI>
InChI=1S/C48H53NO21/c1-21-16-17-30(53)29(19-32(54)61-8)45(59)70-47-39(64-25(5)51)35(66-41(21)55)33-31-20-62-44(58)28-15-12-18-49-34(28)22(2)23(3)42(56)68-38(46(7,60)48(47,69-31)37(33)63-24(4)50)36(40(47)65-26(6)52)67-43(57)27-13-10-9-11-14-27/h9-15,18,21-23,29,31,33,35-40,60H,16-17,19-20H2,1-8H3/t21?,22?,23?,29?,31-,33?,35+,36+,37-,38+,39-,40+,46+,47+,48+/m1/s1

> <PUBCHEM_IUPAC_INCHIKEY>
YPXSQTWQTHDNPS-HQJXCAAZSA-N

> <PUBCHEM_XLOGP3_AA>
2.1

> <PUBCHEM_EXACT_MASS>
979.311008

> <PUBCHEM_MOLECULAR_FORMULA>
C48H53NO21

> <PUBCHEM_MOLECULAR_WEIGHT>
979.9

> <PUBCHEM_OPENEYE_CAN_SMILES>
CC1CCC(=O)C(C(=O)OC23C(C(C4C5COC(=O)C6=C(C(C(C(=O)OC(C(C2OC(=O)C)OC(=O)C7=CC=CC=C7)C(C3(C4OC(=O)C)O5)(C)O)C)C)N=CC=C6)OC1=O)OC(=O)C)CC(=O)OC

> <PUBCHEM_OPENEYE_ISO_SMILES>
CC1CCC(=O)C(C(=O)O[C@@]23[C@H]([C@H]([C@H]4[C@]([C@@]25[C@@H](C([C@H](O5)COC(=O)C6=C(C(C(C(=O)O4)C)C)N=CC=C6)[C@@H]([C@H]3OC(=O)C)OC1=O)OC(=O)C)(C)O)OC(=O)C7=CC=CC=C7)OC(=O)C)CC(=O)OC

> <PUBCHEM_CACTVS_TPSA>
296

> <PUBCHEM_MONOISOTOPIC_WEIGHT>
979.311008

> <PUBCHEM_TOTAL_CHARGE>
0

> <PUBCHEM_HEAVY_ATOM_COUNT>
70

> <PUBCHEM_ATOM_DEF_STEREO_COUNT>
10

> <PUBCHEM_ATOM_UDEF_STEREO_COUNT>
5

> <PUBCHEM_BOND_DEF_STEREO_COUNT>
0

> <PUBCHEM_BOND_UDEF_STEREO_COUNT>
0

> <PUBCHEM_ISOTOPIC_ATOM_COUNT>
0

> <PUBCHEM_COMPONENT_COUNT>
1

> <PUBCHEM_CACTVS_TAUTO_COUNT>
-1

> <PUBCHEM_COORDINATE_TYPE>
1
5
255

> <PUBCHEM_BONDANNOTATIONS>
23  1  5
24  2  6
22  59  8
22  68  8
26  25  3
29  74  5
31  76  6
32  77  6
27  4  5
42  51  3
44  56  3
45  58  3
28  5  5
54  60  3
55  62  8
55  63  8
57  59  8
57  64  8
62  65  8
63  66  8
64  67  8
65  69  8
66  69  8
67  68  8
30  7  6
33  9  6

$$$$
