73321
  -OEChem-09122009392D

109114  0     1  0  0  0  0  0999 V2000
    8.6560   -0.4647    0.0000 O   0  0  0  0  0  0  0  0  0  0  0  0
    9.8562    1.0065    0.0000 O   0  0  0  0  0  0  0  0  0  0  0  0
    8.4728    2.6940    0.0000 O   0  0  0  0  0  0  0  0  0  0  0  0
    7.9027   -0.8475    0.0000 O   0  0  0  0  0  0  0  0  0  0  0  0
   10.2600    2.2625    0.0000 O   0  0  0  0  0  0  0  0  0  0  0  0
    6.9019    2.6384    0.0000 O   0  0  0  0  0  0  0  0  0  0  0  0
    5.2979   -0.3392    0.0000 O   0  0  0  0  0  0  0  0  0  0  0  0
    5.3103    1.6733    0.0000 O   0  0  0  0  0  0  0  0  0  0  0  0
    8.1524    3.0761    0.0000 O   0  0  0  0  0  0  0  0  0  0  0  0
    9.5765   -1.8445    0.0000 O   0  0  0  0  0  0  0  0  0  0  0  0
   11.5780    1.1949    0.0000 O   0  0  0  0  0  0  0  0  0  0  0  0
   10.1661    3.0583    0.0000 O   0  0  0  0  0  0  0  0  0  0  0  0
   11.9693    1.9829    0.0000 O   0  0  0  0  0  0  0  0  0  0  0  0
    5.1905    2.3722    0.0000 O   0  0  0  0  0  0  0  0  0  0  0  0
    4.2931   -1.3241    0.0000 O   0  0  0  0  0  0  0  0  0  0  0  0
    4.4257    0.1842    0.0000 O   0  0  0  0  0  0  0  0  0  0  0  0
    8.0578    4.8056    0.0000 O   0  0  0  0  0  0  0  0  0  0  0  0
    5.3677   -2.4534    0.0000 O   0  0  0  0  0  0  0  0  0  0  0  0
   10.4353   -3.3384    0.0000 O   0  0  0  0  0  0  0  0  0  0  0  0
    2.0000    2.0509    0.0000 O   0  0  0  0  0  0  0  0  0  0  0  0
    6.9979   -3.3168    0.0000 N   0  0  0  0  0  0  0  0  0  0  0  0
    7.9047    0.1500    0.0000 C   0  0  1  0  0  0  0  0  0  0  0  0
    7.9168    1.1206    0.0000 C   0  0  2  0  0  0  0  0  0  0  0  0
   10.0370    0.6088    0.0000 C   0  0  2  0  0  0  0  0  0  0  0  0
    8.8961    0.7267    0.0000 C   0  0  1  0  0  0  0  0  0  0  0  0
    7.0306   -0.3581    0.0000 C   0  0  3  0  0  0  0  0  0  0  0  0
    8.6832    1.7163    0.0000 C   0  0  1  0  0  0  0  0  0  0  0  0
    9.6050   -0.2604    0.0000 C   0  0  2  0  0  0  0  0  0  0  0  0
    9.6268    1.4885    0.0000 C   0  0  2  0  0  0  0  0  0  0  0  0
    7.0557    1.6503    0.0000 C   0  0  2  0  0  0  0  0  0  0  0  0
    6.1574    0.1516    0.0000 C   0  0  2  0  0  0  0  0  0  0  0  0
    6.1700    1.1626    0.0000 C   0  0  2  0  0  0  0  0  0  0  0  0
    7.8622    2.1191    0.0000 C   0  0  0  0  0  0  0  0  0  0  0  0
    6.1707   -0.8686    0.0000 C   0  0  0  0  0  0  0  0  0  0  0  0
   10.2006   -1.0268    0.0000 C   0  0  0  0  0  0  0  0  0  0  0  0
   10.5741   -0.5072    0.0000 C   0  0  0  0  0  0  0  0  0  0  0  0
   10.7715    0.6037    0.0000 C   0  0  0  0  0  0  0  0  0  0  0  0
    9.2143    3.3649    0.0000 C   0  0  0  0  0  0  0  0  0  0  0  0
   11.1954    2.6161    0.0000 C   0  0  0  0  0  0  0  0  0  0  0  0
    5.9694    2.9994    0.0000 C   0  0  0  0  0  0  0  0  0  0  0  0
    5.2931   -1.3289    0.0000 C   0  0  0  0  0  0  0  0  0  0  0  0
    4.4381    1.1841    0.0000 C   0  0  0  0  0  0  0  0  0  0  0  0
    7.6058    3.9135    0.0000 C   0  0  0  0  0  0  0  0  0  0  0  0
   11.3627   -0.2028    0.0000 C   0  0  0  0  0  0  0  0  0  0  0  0
    6.1479   -1.8280    0.0000 C   0  0  3  0  0  0  0  0  0  0  0  0
    9.5717   -2.8342    0.0000 C   0  0  0  0  0  0  0  0  0  0  0  0
    9.0039    4.3426    0.0000 C   0  0  0  0  0  0  0  0  0  0  0  0
   11.3568    3.6030    0.0000 C   0  0  0  0  0  0  0  0  0  0  0  0
    5.8156    3.9875    0.0000 C   0  0  0  0  0  0  0  0  0  0  0  0
    3.5784    1.6948    0.0000 C   0  0  0  0  0  0  0  0  0  0  0  0
    6.6073    3.8589    0.0000 C   0  0  0  0  0  0  0  0  0  0  0  0
    7.0074   -1.3372    0.0000 C   0  0  0  0  0  0  0  0  0  0  0  0
    8.7122   -3.3250    0.0000 C   0  0  0  0  0  0  0  0  0  0  0  0
    6.1256   -2.8277    0.0000 C   0  0  0  0  0  0  0  0  0  0  0  0
    7.8622   -1.8362    0.0000 C   0  0  0  0  0  0  0  0  0  0  0  0
    7.8574   -2.8260    0.0000 C   0  0  0  0  0  0  0  0  0  0  0  0
    3.4862    2.6906    0.0000 C   0  0  0  0  0  0  0  0  0  0  0  0
    2.6598    1.2995    0.0000 C   0  0  0  0  0  0  0  0  0  0  0  0
    8.7074   -4.3148    0.0000 C   0  0  0  0  0  0  0  0  0  0  0  0
    2.5107    2.9106    0.0000 C   0  0  0  0  0  0  0  0  0  0  0  0
    7.8479   -4.8056    0.0000 C   0  0  0  0  0  0  0  0  0  0  0  0
    6.9932   -4.3066    0.0000 C   0  0  0  0  0  0  0  0  0  0  0  0
   10.5914    1.2531    0.0000 H   0  0  0  0  0  0  0  0  0  0  0  0
    8.4336    1.1396    0.0000 H   0  0  0  0  0  0  0  0  0  0  0  0
    9.1270    2.1492    0.0000 H   0  0  0  0  0  0  0  0  0  0  0  0
   10.2419    1.4114    0.0000 H   0  0  0  0  0  0  0  0  0  0  0  0
    6.4992    1.9236    0.0000 H   0  0  0  0  0  0  0  0  0  0  0  0
    5.4250    0.5830    0.0000 H   0  0  0  0  0  0  0  0  0  0  0  0
    5.6293    0.8593    0.0000 H   0  0  0  0  0  0  0  0  0  0  0  0
    7.3887    2.5193    0.0000 H   0  0  0  0  0  0  0  0  0  0  0  0
    8.4778    2.0450    0.0000 H   0  0  0  0  0  0  0  0  0  0  0  0
    5.8542   -0.3355    0.0000 H   0  0  0  0  0  0  0  0  0  0  0  0
    5.6376   -1.1851    0.0000 H   0  0  0  0  0  0  0  0  0  0  0  0
    6.4873   -1.4017    0.0000 H   0  0  0  0  0  0  0  0  0  0  0  0
   10.6593   -1.4439    0.0000 H   0  0  0  0  0  0  0  0  0  0  0  0
   10.6556   -0.6056    0.0000 H   0  0  0  0  0  0  0  0  0  0  0  0
   10.4211   -1.1080    0.0000 H   0  0  0  0  0  0  0  0  0  0  0  0
   11.1749   -0.6602    0.0000 H   0  0  0  0  0  0  0  0  0  0  0  0
   10.7271    0.0936    0.0000 H   0  0  0  0  0  0  0  0  0  0  0  0
    8.3824   -1.2402    0.0000 H   0  0  0  0  0  0  0  0  0  0  0  0
   10.8627   -0.5694    0.0000 H   0  0  0  0  0  0  0  0  0  0  0  0
   11.7293   -0.7028    0.0000 H   0  0  0  0  0  0  0  0  0  0  0  0
   11.8628    0.1638    0.0000 H   0  0  0  0  0  0  0  0  0  0  0  0
    9.6101    4.4730    0.0000 H   0  0  0  0  0  0  0  0  0  0  0  0
    8.8735    4.9487    0.0000 H   0  0  0  0  0  0  0  0  0  0  0  0
    8.3978    4.2121    0.0000 H   0  0  0  0  0  0  0  0  0  0  0  0
   11.9686    3.5029    0.0000 H   0  0  0  0  0  0  0  0  0  0  0  0
   11.4569    4.2149    0.0000 H   0  0  0  0  0  0  0  0  0  0  0  0
   10.7449    3.7031    0.0000 H   0  0  0  0  0  0  0  0  0  0  0  0
    6.4283    4.0828    0.0000 H   0  0  0  0  0  0  0  0  0  0  0  0
    5.7203    4.6001    0.0000 H   0  0  0  0  0  0  0  0  0  0  0  0
    5.2030    3.8922    0.0000 H   0  0  0  0  0  0  0  0  0  0  0  0
    6.5734    4.4780    0.0000 H   0  0  0  0  0  0  0  0  0  0  0  0
    5.9882    3.8250    0.0000 H   0  0  0  0  0  0  0  0  0  0  0  0
    6.6412    3.2398    0.0000 H   0  0  0  0  0  0  0  0  0  0  0  0
    7.4082   -0.8642    0.0000 H   0  0  0  0  0  0  0  0  0  0  0  0
    6.6112   -0.8603    0.0000 H   0  0  0  0  0  0  0  0  0  0  0  0
    5.5057   -2.8139    0.0000 H   0  0  0  0  0  0  0  0  0  0  0  0
    6.1117   -3.4476    0.0000 H   0  0  0  0  0  0  0  0  0  0  0  0
    6.7454   -2.8415    0.0000 H   0  0  0  0  0  0  0  0  0  0  0  0
    8.4722   -1.9468    0.0000 H   0  0  0  0  0  0  0  0  0  0  0  0
    8.0770   -1.2546    0.0000 H   0  0  0  0  0  0  0  0  0  0  0  0
    4.7548   -2.5474    0.0000 H   0  0  0  0  0  0  0  0  0  0  0  0
    3.9521    3.0997    0.0000 H   0  0  0  0  0  0  0  0  0  0  0  0
    2.5234    0.6947    0.0000 H   0  0  0  0  0  0  0  0  0  0  0  0
    9.2429   -4.6274    0.0000 H   0  0  0  0  0  0  0  0  0  0  0  0
    2.2656    3.4801    0.0000 H   0  0  0  0  0  0  0  0  0  0  0  0
    7.8449   -5.4256    0.0000 H   0  0  0  0  0  0  0  0  0  0  0  0
    6.4547   -4.6140    0.0000 H   0  0  0  0  0  0  0  0  0  0  0  0
  1 22  1  0  0  0  0
  1 28  1  0  0  0  0
 25  2  1  6  0  0  0
  2 37  1  0  0  0  0
 27  3  1  6  0  0  0
  3 38  1  0  0  0  0
  4 26  1  0  0  0  0
  4 80  1  0  0  0  0
 29  5  1  6  0  0  0
  5 39  1  0  0  0  0
 30  6  1  6  0  0  0
  6 40  1  0  0  0  0
  7 31  1  0  0  0  0
  7 41  1  0  0  0  0
 32  8  1  6  0  0  0
  8 42  1  0  0  0  0
  9 33  1  0  0  0  0
  9 43  1  0  0  0  0
 10 35  1  0  0  0  0
 10 46  1  0  0  0  0
 11 37  2  0  0  0  0
 12 38  2  0  0  0  0
 13 39  2  0  0  0  0
 14 40  2  0  0  0  0
 15 41  2  0  0  0  0
 16 42  2  0  0  0  0
 17 43  2  0  0  0  0
 18 45  1  0  0  0  0
 18103  1  0  0  0  0
 19 46  2  0  0  0  0
 20 58  1  0  0  0  0
 20 60  1  0  0  0  0
 21 56  1  0  0  0  0
 21 62  2  0  0  0  0
 22 23  1  0  0  0  0
 22 25  1  0  0  0  0
 22 26  1  6  0  0  0
 23 27  1  0  0  0  0
 23 30  1  0  0  0  0
 23 33  1  6  0  0  0
 24 25  1  0  0  0  0
 24 28  1  0  0  0  0
 24 29  1  0  0  0  0
 24 63  1  6  0  0  0
 25 64  1  0  0  0  0
 26 31  1  0  0  0  0
 26 34  1  0  0  0  0
 27 29  1  0  0  0  0
 27 65  1  0  0  0  0
 28 35  1  0  0  0  0
 28 36  1  1  0  0  0
 29 66  1  0  0  0  0
 30 32  1  0  0  0  0
 30 67  1  0  0  0  0
 31 32  1  0  0  0  0
 31 68  1  6  0  0  0
 32 69  1  0  0  0  0
 33 70  1  0  0  0  0
 33 71  1  0  0  0  0
 34 72  1  0  0  0  0
 34 73  1  0  0  0  0
 34 74  1  0  0  0  0
 35 75  1  0  0  0  0
 35 76  1  0  0  0  0
 36 77  1  0  0  0  0
 36 78  1  0  0  0  0
 36 79  1  0  0  0  0
 37 44  1  0  0  0  0
 38 47  1  0  0  0  0
 39 48  1  0  0  0  0
 40 49  1  0  0  0  0
 41 45  1  0  0  0  0
 42 50  1  0  0  0  0
 43 51  1  0  0  0  0
 44 81  1  0  0  0  0
 44 82  1  0  0  0  0
 44 83  1  0  0  0  0
 45 52  1  0  0  0  0
 45 54  1  0  0  0  0
 46 53  1  0  0  0  0
 47 84  1  0  0  0  0
 47 85  1  0  0  0  0
 47 86  1  0  0  0  0
 48 87  1  0  0  0  0
 48 88  1  0  0  0  0
 48 89  1  0  0  0  0
 49 90  1  0  0  0  0
 49 91  1  0  0  0  0
 49 92  1  0  0  0  0
 50 57  1  0  0  0  0
 50 58  2  0  0  0  0
 51 93  1  0  0  0  0
 51 94  1  0  0  0  0
 51 95  1  0  0  0  0
 52 55  1  0  0  0  0
 52 96  1  0  0  0  0
 52 97  1  0  0  0  0
 53 56  2  0  0  0  0
 53 59  1  0  0  0  0
 54 98  1  0  0  0  0
 54 99  1  0  0  0  0
 54100  1  0  0  0  0
 55 56  1  0  0  0  0
 55101  1  0  0  0  0
 55102  1  0  0  0  0
 57 60  2  0  0  0  0
 57104  1  0  0  0  0
 58105  1  0  0  0  0
 59 61  2  0  0  0  0
 59106  1  0  0  0  0
 60107  1  0  0  0  0
 61 62  1  0  0  0  0
 61108  1  0  0  0  0
 62109  1  0  0  0  0
M  END
> <PUBCHEM_COMPOUND_CID>
73321

> <PUBCHEM_COMPOUND_CANONICALIZED>
1

> <PUBCHEM_CACTVS_COMPLEXITY>
1840

> <PUBCHEM_CACTVS_HBOND_ACCEPTOR>
21

> <PUBCHEM_CACTVS_HBOND_DONOR>
2

> <PUBCHEM_CACTVS_ROTATABLE_BOND>
14

> <PUBCHEM_CACTVS_SUBSKEYS>
AAADcfB+PgAAAAAAAAAAAAAAAAAAASJAAAA8YIAABIAAAADB4AAAHgAACAAAD1zhngY+jJIIFkCoAzz3zAKCiCA1IiAI2CF+bNgNJ/7MtZuGeejn4BHL6cf7+f+fgAAAAAAAAADCAAYQADCAAAAAAAAAAA==

> <PUBCHEM_IUPAC_OPENEYE_NAME>
[(1S,3R,18S,19R,20R,21R,22S,23R,24R,25R)-20,22,23,25-tetraacetoxy-21-(acetoxymethyl)-15,26-dihydroxy-3,15,26-trimethyl-6,16-dioxo-2,5,17-trioxa-11-azapentacyclo[16.7.1.01,21.03,24.07,12]hexacosa-7(12),8,10-trien-19-yl] furan-3-carboxylate

> <PUBCHEM_IUPAC_CAS_NAME>
3-furancarboxylic acid [(1S,3R,18S,19R,20R,21R,22S,23R,24R,25R)-20,22,23,25-tetraacetyloxy-21-(acetyloxymethyl)-15,26-dihydroxy-3,15,26-trimethyl-6,16-dioxo-2,5,17-trioxa-11-azapentacyclo[16.7.1.01,21.03,24.07,12]hexacosa-7(12),8,10-trien-19-yl] ester

> <PUBCHEM_IUPAC_NAME_MARKUP>
[(1<I>S</I>,3<I>R</I>,18<I>S</I>,19<I>R</I>,20<I>R</I>,21<I>R</I>,22<I>S</I>,23<I>R</I>,24<I>R</I>,25<I>R</I>)-20,22,23,25-tetraacetyloxy-21-(acetyloxymethyl)-15,26-dihydroxy-3,15,26-trimethyl-6,16-dioxo-2,5,17-trioxa-11-azapentacyclo[16.7.1.0<SUP>1,21</SUP>.0<SUP>3,24</SUP>.0<SUP>7,12</SUP>]hexacosa-7(12),8,10-trien-19-yl] furan-3-carboxylate

> <PUBCHEM_IUPAC_NAME>
[(1S,3R,18S,19R,20R,21R,22S,23R,24R,25R)-20,22,23,25-tetraacetyloxy-21-(acetyloxymethyl)-15,26-dihydroxy-3,15,26-trimethyl-6,16-dioxo-2,5,17-trioxa-11-azapentacyclo[16.7.1.01,21.03,24.07,12]hexacosa-7(12),8,10-trien-19-yl] furan-3-carboxylate

> <PUBCHEM_IUPAC_SYSTEMATIC_NAME>
[(1S,3R,18S,19R,20R,21R,22S,23R,24R,25R)-20,22,23,25-tetraacetyloxy-21-(acetyloxymethyl)-3,15,26-trimethyl-15,26-bis(oxidanyl)-6,16-bis(oxidanylidene)-2,5,17-trioxa-11-azapentacyclo[16.7.1.01,21.03,24.07,12]hexacosa-7(12),8,10-trien-19-yl] furan-3-carboxylate

> <PUBCHEM_IUPAC_TRADITIONAL_NAME>
furan-3-carboxylic acid [(1S,3R,18S,19R,20R,21R,22S,23R,24R,25R)-20,22,23,25-tetraacetoxy-21-(acetoxymethyl)-15,26-dihydroxy-6,16-diketo-3,15,26-trimethyl-2,5,17-trioxa-11-azapentacyclo[16.7.1.01,21.03,24.07,12]hexacosa-7(12),8,10-trien-19-yl] ester

> <PUBCHEM_IUPAC_INCHI>
InChI=1S/C41H47NO20/c1-19(43)54-18-40-32(58-22(4)46)28(56-20(2)44)27-30(57-21(3)45)41(40)39(8,52)31(29(33(40)59-23(5)47)60-34(48)24-12-15-53-16-24)61-36(50)37(6,51)13-11-26-25(10-9-14-42-26)35(49)55-17-38(27,7)62-41/h9-10,12,14-16,27-33,51-52H,11,13,17-18H2,1-8H3/t27-,28-,29+,30-,31+,32-,33+,37?,38+,39?,40-,41+/m1/s1

> <PUBCHEM_IUPAC_INCHIKEY>
JOKOHWLSQAZHFX-FYBNDBPCSA-N

> <PUBCHEM_XLOGP3_AA>
0.3

> <PUBCHEM_EXACT_MASS>
873.269143

> <PUBCHEM_MOLECULAR_FORMULA>
C41H47NO20

> <PUBCHEM_MOLECULAR_WEIGHT>
873.8

> <PUBCHEM_OPENEYE_CAN_SMILES>
CC(=O)OCC12C(C(C3C(C14C(C(C(C2OC(=O)C)OC(=O)C5=COC=C5)OC(=O)C(CCC6=C(C=CC=N6)C(=O)OCC3(O4)C)(C)O)(C)O)OC(=O)C)OC(=O)C)OC(=O)C

> <PUBCHEM_OPENEYE_ISO_SMILES>
CC(=O)OC[C@]12[C@@H]([C@@H]([C@@H]3[C@H]([C@]14C([C@H]([C@@H]([C@@H]2OC(=O)C)OC(=O)C5=COC=C5)OC(=O)C(CCC6=C(C=CC=N6)C(=O)OC[C@@]3(O4)C)(C)O)(C)O)OC(=O)C)OC(=O)C)OC(=O)C

> <PUBCHEM_CACTVS_TPSA>
286

> <PUBCHEM_MONOISOTOPIC_WEIGHT>
873.269143

> <PUBCHEM_TOTAL_CHARGE>
0

> <PUBCHEM_HEAVY_ATOM_COUNT>
62

> <PUBCHEM_ATOM_DEF_STEREO_COUNT>
10

> <PUBCHEM_ATOM_UDEF_STEREO_COUNT>
2

> <PUBCHEM_BOND_DEF_STEREO_COUNT>
0

> <PUBCHEM_BOND_UDEF_STEREO_COUNT>
0

> <PUBCHEM_ISOTOPIC_ATOM_COUNT>
0

> <PUBCHEM_COMPONENT_COUNT>
1

> <PUBCHEM_CACTVS_TAUTO_COUNT>
-1

> <PUBCHEM_COORDINATE_TYPE>
1
5
255

> <PUBCHEM_BONDANNOTATIONS>
45  18  3
25  2  6
20  58  8
20  60  8
21  56  8
21  62  8
22  26  6
23  33  6
24  63  6
28  36  5
27  3  6
31  68  6
26  4  3
29  5  6
50  57  8
50  58  8
53  56  8
53  59  8
57  60  8
59  61  8
30  6  6
61  62  8
32  8  6

$$$$
