601100
  -OEChem-09122009412D

111116  0     1  0  0  0  0  0999 V2000
    8.8095   -0.4647    0.0000 O   0  0  0  0  0  0  0  0  0  0  0  0
    9.3546    1.6791    0.0000 O   0  0  0  0  0  0  0  0  0  0  0  0
    8.7993    2.7156    0.0000 O   0  0  0  0  0  0  0  0  0  0  0  0
    8.0562   -0.8475    0.0000 O   0  0  0  0  0  0  0  0  0  0  0  0
   10.4135    2.2625    0.0000 O   0  0  0  0  0  0  0  0  0  0  0  0
    7.0555    2.6384    0.0000 O   0  0  0  0  0  0  0  0  0  0  0  0
    5.4514   -0.3392    0.0000 O   0  0  0  0  0  0  0  0  0  0  0  0
    5.4638    1.6733    0.0000 O   0  0  0  0  0  0  0  0  0  0  0  0
    8.3059    3.0761    0.0000 O   0  0  0  0  0  0  0  0  0  0  0  0
    9.7300   -1.8445    0.0000 O   0  0  0  0  0  0  0  0  0  0  0  0
   10.9661    2.5089    0.0000 O   0  0  0  0  0  0  0  0  0  0  0  0
   10.6453    3.2850    0.0000 O   0  0  0  0  0  0  0  0  0  0  0  0
   11.7541    1.1657    0.0000 O   0  0  0  0  0  0  0  0  0  0  0  0
    5.3440    2.3722    0.0000 O   0  0  0  0  0  0  0  0  0  0  0  0
    4.5783   -1.8248    0.0000 O   0  0  0  0  0  0  0  0  0  0  0  0
    4.5792    0.1842    0.0000 O   0  0  0  0  0  0  0  0  0  0  0  0
    8.2113    4.8056    0.0000 O   0  0  0  0  0  0  0  0  0  0  0  0
   10.5889   -3.3384    0.0000 O   0  0  0  0  0  0  0  0  0  0  0  0
    7.1515   -3.3168    0.0000 N   0  0  0  0  0  0  0  0  0  0  0  0
    8.0582    0.1500    0.0000 C   0  0  3  0  0  0  0  0  0  0  0  0
    8.0704    1.1206    0.0000 C   0  0  3  0  0  0  0  0  0  0  0  0
   10.1905    0.6088    0.0000 C   0  0  3  0  0  0  0  0  0  0  0  0
    9.0497    0.7267    0.0000 C   0  0  3  0  0  0  0  0  0  0  0  0
    7.1842   -0.3581    0.0000 C   0  0  3  0  0  0  0  0  0  0  0  0
    8.8367    1.7163    0.0000 C   0  0  3  0  0  0  0  0  0  0  0  0
    9.7586   -0.2604    0.0000 C   0  0  3  0  0  0  0  0  0  0  0  0
    9.7803    1.4885    0.0000 C   0  0  3  0  0  0  0  0  0  0  0  0
    7.2092    1.6503    0.0000 C   0  0  3  0  0  0  0  0  0  0  0  0
    6.3110    0.1516    0.0000 C   0  0  3  0  0  0  0  0  0  0  0  0
    6.3236    1.1626    0.0000 C   0  0  3  0  0  0  0  0  0  0  0  0
    8.0158    2.1191    0.0000 C   0  0  0  0  0  0  0  0  0  0  0  0
    6.3243   -0.8686    0.0000 C   0  0  0  0  0  0  0  0  0  0  0  0
   10.3542   -1.0268    0.0000 C   0  0  0  0  0  0  0  0  0  0  0  0
   10.7536   -0.1609    0.0000 C   0  0  0  0  0  0  0  0  0  0  0  0
   10.3538    1.7183    0.0000 C   0  0  0  0  0  0  0  0  0  0  0  0
    9.6460    3.2477    0.0000 C   0  0  0  0  0  0  0  0  0  0  0  0
   11.4004    2.1010    0.0000 C   0  0  0  0  0  0  0  0  0  0  0  0
    6.1229    2.9994    0.0000 C   0  0  0  0  0  0  0  0  0  0  0  0
    5.4467   -1.3289    0.0000 C   0  0  0  0  0  0  0  0  0  0  0  0
    4.5917    1.1841    0.0000 C   0  0  0  0  0  0  0  0  0  0  0  0
    7.7594    3.9135    0.0000 C   0  0  0  0  0  0  0  0  0  0  0  0
   10.8874    0.8725    0.0000 C   0  0  0  0  0  0  0  0  0  0  0  0
    6.3014   -1.8280    0.0000 C   0  0  3  0  0  0  0  0  0  0  0  0
    9.7253   -2.8342    0.0000 C   0  0  0  0  0  0  0  0  0  0  0  0
    9.6087    4.2470    0.0000 C   0  0  0  0  0  0  0  0  0  0  0  0
   12.0337    2.8750    0.0000 C   0  0  0  0  0  0  0  0  0  0  0  0
    5.9692    3.9875    0.0000 C   0  0  0  0  0  0  0  0  0  0  0  0
    3.7319    1.6948    0.0000 C   0  0  0  0  0  0  0  0  0  0  0  0
    6.7609    3.8589    0.0000 C   0  0  0  0  0  0  0  0  0  0  0  0
    7.1610   -1.3372    0.0000 C   0  0  0  0  0  0  0  0  0  0  0  0
    8.8657   -3.3250    0.0000 C   0  0  0  0  0  0  0  0  0  0  0  0
    5.7097   -2.6341    0.0000 C   0  0  0  0  0  0  0  0  0  0  0  0
    8.0157   -1.8362    0.0000 C   0  0  0  0  0  0  0  0  0  0  0  0
    8.0110   -2.8260    0.0000 C   0  0  0  0  0  0  0  0  0  0  0  0
    2.8597    1.2056    0.0000 C   0  0  0  0  0  0  0  0  0  0  0  0
    3.7444    2.6947    0.0000 C   0  0  0  0  0  0  0  0  0  0  0  0
    8.8610   -4.3148    0.0000 C   0  0  0  0  0  0  0  0  0  0  0  0
    2.0000    1.7164    0.0000 C   0  0  0  0  0  0  0  0  0  0  0  0
    2.8846    3.2055    0.0000 C   0  0  0  0  0  0  0  0  0  0  0  0
    8.0015   -4.8056    0.0000 C   0  0  0  0  0  0  0  0  0  0  0  0
    2.0124    2.7163    0.0000 C   0  0  0  0  0  0  0  0  0  0  0  0
    7.1467   -4.3066    0.0000 C   0  0  0  0  0  0  0  0  0  0  0  0
   10.8105    0.6011    0.0000 H   0  0  0  0  0  0  0  0  0  0  0  0
    8.5664    1.1151    0.0000 H   0  0  0  0  0  0  0  0  0  0  0  0
    9.3166    2.1089    0.0000 H   0  0  0  0  0  0  0  0  0  0  0  0
   10.3955    1.4114    0.0000 H   0  0  0  0  0  0  0  0  0  0  0  0
    6.6527    1.9236    0.0000 H   0  0  0  0  0  0  0  0  0  0  0  0
    6.8505    0.4570    0.0000 H   0  0  0  0  0  0  0  0  0  0  0  0
    5.7828    0.8593    0.0000 H   0  0  0  0  0  0  0  0  0  0  0  0
    7.5422    2.5193    0.0000 H   0  0  0  0  0  0  0  0  0  0  0  0
    8.6313    2.0450    0.0000 H   0  0  0  0  0  0  0  0  0  0  0  0
    6.0078   -0.3355    0.0000 H   0  0  0  0  0  0  0  0  0  0  0  0
    5.7912   -1.1851    0.0000 H   0  0  0  0  0  0  0  0  0  0  0  0
    6.6408   -1.4017    0.0000 H   0  0  0  0  0  0  0  0  0  0  0  0
   10.8128   -1.4439    0.0000 H   0  0  0  0  0  0  0  0  0  0  0  0
   10.8092   -0.6056    0.0000 H   0  0  0  0  0  0  0  0  0  0  0  0
   10.8153   -0.7778    0.0000 H   0  0  0  0  0  0  0  0  0  0  0  0
   11.3705   -0.0992    0.0000 H   0  0  0  0  0  0  0  0  0  0  0  0
   10.6919    0.4560    0.0000 H   0  0  0  0  0  0  0  0  0  0  0  0
    8.5360   -1.2402    0.0000 H   0  0  0  0  0  0  0  0  0  0  0  0
   10.3630    0.5417    0.0000 H   0  0  0  0  0  0  0  0  0  0  0  0
   11.2182    0.3482    0.0000 H   0  0  0  0  0  0  0  0  0  0  0  0
   11.4118    1.2033    0.0000 H   0  0  0  0  0  0  0  0  0  0  0  0
    6.7141   -2.2907    0.0000 H   0  0  0  0  0  0  0  0  0  0  0  0
   10.2282    4.2701    0.0000 H   0  0  0  0  0  0  0  0  0  0  0  0
    9.5855    4.8665    0.0000 H   0  0  0  0  0  0  0  0  0  0  0  0
    8.9891    4.2238    0.0000 H   0  0  0  0  0  0  0  0  0  0  0  0
   12.5135    2.4824    0.0000 H   0  0  0  0  0  0  0  0  0  0  0  0
   12.4263    3.3549    0.0000 H   0  0  0  0  0  0  0  0  0  0  0  0
   11.5538    3.2676    0.0000 H   0  0  0  0  0  0  0  0  0  0  0  0
    6.5818    4.0828    0.0000 H   0  0  0  0  0  0  0  0  0  0  0  0
    5.8739    4.6001    0.0000 H   0  0  0  0  0  0  0  0  0  0  0  0
    5.3566    3.8922    0.0000 H   0  0  0  0  0  0  0  0  0  0  0  0
    6.7270    4.4780    0.0000 H   0  0  0  0  0  0  0  0  0  0  0  0
    6.1418    3.8250    0.0000 H   0  0  0  0  0  0  0  0  0  0  0  0
    6.7947    3.2398    0.0000 H   0  0  0  0  0  0  0  0  0  0  0  0
    7.5618   -0.8642    0.0000 H   0  0  0  0  0  0  0  0  0  0  0  0
    6.7647   -0.8603    0.0000 H   0  0  0  0  0  0  0  0  0  0  0  0
    5.2099   -2.2672    0.0000 H   0  0  0  0  0  0  0  0  0  0  0  0
    5.3428   -3.1338    0.0000 H   0  0  0  0  0  0  0  0  0  0  0  0
    6.2095   -3.0010    0.0000 H   0  0  0  0  0  0  0  0  0  0  0  0
    8.6258   -1.9468    0.0000 H   0  0  0  0  0  0  0  0  0  0  0  0
    8.2306   -1.2546    0.0000 H   0  0  0  0  0  0  0  0  0  0  0  0
    2.8520    0.5857    0.0000 H   0  0  0  0  0  0  0  0  0  0  0  0
    4.2851    2.9980    0.0000 H   0  0  0  0  0  0  0  0  0  0  0  0
    9.3964   -4.6274    0.0000 H   0  0  0  0  0  0  0  0  0  0  0  0
    1.4592    1.4130    0.0000 H   0  0  0  0  0  0  0  0  0  0  0  0
    2.8923    3.8254    0.0000 H   0  0  0  0  0  0  0  0  0  0  0  0
    7.9985   -5.4256    0.0000 H   0  0  0  0  0  0  0  0  0  0  0  0
    1.4794    3.0329    0.0000 H   0  0  0  0  0  0  0  0  0  0  0  0
    6.6083   -4.6140    0.0000 H   0  0  0  0  0  0  0  0  0  0  0  0
  1 20  1  0  0  0  0
  1 26  1  0  0  0  0
  2 23  1  0  0  0  0
  2 35  1  0  0  0  0
  3 25  1  0  0  0  0
  3 36  1  0  0  0  0
  4 24  1  0  0  0  0
  4 80  1  0  0  0  0
  5 27  1  0  0  0  0
  5 37  1  0  0  0  0
  6 28  1  0  0  0  0
  6 38  1  0  0  0  0
  7 29  1  0  0  0  0
  7 39  1  0  0  0  0
  8 30  1  0  0  0  0
  8 40  1  0  0  0  0
  9 31  1  0  0  0  0
  9 41  1  0  0  0  0
 10 33  1  0  0  0  0
 10 44  1  0  0  0  0
 11 35  2  0  0  0  0
 12 36  2  0  0  0  0
 13 37  2  0  0  0  0
 14 38  2  0  0  0  0
 15 39  2  0  0  0  0
 16 40  2  0  0  0  0
 17 41  2  0  0  0  0
 18 44  2  0  0  0  0
 19 54  1  0  0  0  0
 19 62  2  0  0  0  0
 20 21  1  0  0  0  0
 20 23  1  0  0  0  0
 20 24  1  0  0  0  0
 21 25  1  0  0  0  0
 21 28  1  0  0  0  0
 21 31  1  0  0  0  0
 22 23  1  0  0  0  0
 22 26  1  0  0  0  0
 22 27  1  0  0  0  0
 22 63  1  0  0  0  0
 23 64  1  0  0  0  0
 24 29  1  0  0  0  0
 24 32  1  0  0  0  0
 25 27  1  0  0  0  0
 25 65  1  0  0  0  0
 26 33  1  0  0  0  0
 26 34  1  0  0  0  0
 27 66  1  0  0  0  0
 28 30  1  0  0  0  0
 28 67  1  0  0  0  0
 29 30  1  0  0  0  0
 29 68  1  0  0  0  0
 30 69  1  0  0  0  0
 31 70  1  0  0  0  0
 31 71  1  0  0  0  0
 32 72  1  0  0  0  0
 32 73  1  0  0  0  0
 32 74  1  0  0  0  0
 33 75  1  0  0  0  0
 33 76  1  0  0  0  0
 34 77  1  0  0  0  0
 34 78  1  0  0  0  0
 34 79  1  0  0  0  0
 35 42  1  0  0  0  0
 36 45  1  0  0  0  0
 37 46  1  0  0  0  0
 38 47  1  0  0  0  0
 39 43  1  0  0  0  0
 40 48  1  0  0  0  0
 41 49  1  0  0  0  0
 42 81  1  0  0  0  0
 42 82  1  0  0  0  0
 42 83  1  0  0  0  0
 43 50  1  0  0  0  0
 43 52  1  0  0  0  0
 43 84  1  0  0  0  0
 44 51  1  0  0  0  0
 45 85  1  0  0  0  0
 45 86  1  0  0  0  0
 45 87  1  0  0  0  0
 46 88  1  0  0  0  0
 46 89  1  0  0  0  0
 46 90  1  0  0  0  0
 47 91  1  0  0  0  0
 47 92  1  0  0  0  0
 47 93  1  0  0  0  0
 48 55  2  0  0  0  0
 48 56  1  0  0  0  0
 49 94  1  0  0  0  0
 49 95  1  0  0  0  0
 49 96  1  0  0  0  0
 50 53  1  0  0  0  0
 50 97  1  0  0  0  0
 50 98  1  0  0  0  0
 51 54  2  0  0  0  0
 51 57  1  0  0  0  0
 52 99  1  0  0  0  0
 52100  1  0  0  0  0
 52101  1  0  0  0  0
 53 54  1  0  0  0  0
 53102  1  0  0  0  0
 53103  1  0  0  0  0
 55 58  1  0  0  0  0
 55104  1  0  0  0  0
 56 59  2  0  0  0  0
 56105  1  0  0  0  0
 57 60  2  0  0  0  0
 57106  1  0  0  0  0
 58 61  2  0  0  0  0
 58107  1  0  0  0  0
 59 61  1  0  0  0  0
 59108  1  0  0  0  0
 60 62  1  0  0  0  0
 60109  1  0  0  0  0
 61110  1  0  0  0  0
 62111  1  0  0  0  0
M  END
> <PUBCHEM_COMPOUND_CID>
601100

> <PUBCHEM_COMPOUND_CANONICALIZED>
1

> <PUBCHEM_CACTVS_COMPLEXITY>
1800

> <PUBCHEM_CACTVS_HBOND_ACCEPTOR>
19

> <PUBCHEM_CACTVS_HBOND_DONOR>
1

> <PUBCHEM_CACTVS_ROTATABLE_BOND>
14

> <PUBCHEM_CACTVS_SUBSKEYS>
AAADcfB+PgAAAAAAAAAAAAAAAAAAASAAAAA8YMEABIAAAADBwAAAHgAACAAAD1zhngY+iJIIFgCoAzT3TACCgCA1AiAI2CE4bNgJJvrAtZmGcYhnwAHL6cfY+f+fgAAAAAAAAADCAAYQADCAAAAAAAAAAA==

> <PUBCHEM_IUPAC_OPENEYE_NAME>
[20,22,23,25-tetraacetoxy-21-(acetoxymethyl)-26-hydroxy-3,15,26-trimethyl-6,16-dioxo-2,5,17-trioxa-11-azapentacyclo[16.7.1.01,21.03,24.07,12]hexacosa-7(12),8,10-trien-19-yl] benzoate

> <PUBCHEM_IUPAC_CAS_NAME>
benzoic acid [20,22,23,25-tetraacetyloxy-21-(acetyloxymethyl)-26-hydroxy-3,15,26-trimethyl-6,16-dioxo-2,5,17-trioxa-11-azapentacyclo[16.7.1.01,21.03,24.07,12]hexacosa-7(12),8,10-trien-19-yl] ester

> <PUBCHEM_IUPAC_NAME_MARKUP>
[20,22,23,25-tetraacetyloxy-21-(acetyloxymethyl)-26-hydroxy-3,15,26-trimethyl-6,16-dioxo-2,5,17-trioxa-11-azapentacyclo[16.7.1.0<SUP>1,21</SUP>.0<SUP>3,24</SUP>.0<SUP>7,12</SUP>]hexacosa-7(12),8,10-trien-19-yl] benzoate

> <PUBCHEM_IUPAC_NAME>
[20,22,23,25-tetraacetyloxy-21-(acetyloxymethyl)-26-hydroxy-3,15,26-trimethyl-6,16-dioxo-2,5,17-trioxa-11-azapentacyclo[16.7.1.01,21.03,24.07,12]hexacosa-7(12),8,10-trien-19-yl] benzoate

> <PUBCHEM_IUPAC_SYSTEMATIC_NAME>
[20,22,23,25-tetraacetyloxy-21-(acetyloxymethyl)-3,15,26-trimethyl-26-oxidanyl-6,16-bis(oxidanylidene)-2,5,17-trioxa-11-azapentacyclo[16.7.1.01,21.03,24.07,12]hexacosa-7(12),8,10-trien-19-yl] benzoate

> <PUBCHEM_IUPAC_TRADITIONAL_NAME>
benzoic acid [20,22,23,25-tetraacetoxy-21-(acetoxymethyl)-26-hydroxy-6,16-diketo-3,15,26-trimethyl-2,5,17-trioxa-11-azapentacyclo[16.7.1.01,21.03,24.07,12]hexacosa-7(12),8,10-trien-19-yl] ester

> <PUBCHEM_IUPAC_INCHI>
InChI=1S/C43H49NO18/c1-21-16-17-29-28(15-12-18-44-29)39(52)55-19-40(7)30-31(56-23(3)46)35(58-25(5)48)42(20-54-22(2)45)36(59-26(6)49)32(60-38(51)27-13-10-9-11-14-27)34(61-37(21)50)41(8,53)43(42,62-40)33(30)57-24(4)47/h9-15,18,21,30-36,53H,16-17,19-20H2,1-8H3

> <PUBCHEM_IUPAC_INCHIKEY>
ZOCKGJZEUVPPPI-UHFFFAOYSA-N

> <PUBCHEM_XLOGP3_AA>
2.2

> <PUBCHEM_EXACT_MASS>
867.294964

> <PUBCHEM_MOLECULAR_FORMULA>
C43H49NO18

> <PUBCHEM_MOLECULAR_WEIGHT>
867.8

> <PUBCHEM_OPENEYE_CAN_SMILES>
CC1CCC2=C(C=CC=N2)C(=O)OCC3(C4C(C(C5(C(C(C(C(C5(C4OC(=O)C)O3)(C)O)OC1=O)OC(=O)C6=CC=CC=C6)OC(=O)C)COC(=O)C)OC(=O)C)OC(=O)C)C

> <PUBCHEM_OPENEYE_ISO_SMILES>
CC1CCC2=C(C=CC=N2)C(=O)OCC3(C4C(C(C5(C(C(C(C(C5(C4OC(=O)C)O3)(C)O)OC1=O)OC(=O)C6=CC=CC=C6)OC(=O)C)COC(=O)C)OC(=O)C)OC(=O)C)C

> <PUBCHEM_CACTVS_TPSA>
253

> <PUBCHEM_MONOISOTOPIC_WEIGHT>
867.294964

> <PUBCHEM_TOTAL_CHARGE>
0

> <PUBCHEM_HEAVY_ATOM_COUNT>
62

> <PUBCHEM_ATOM_DEF_STEREO_COUNT>
0

> <PUBCHEM_ATOM_UDEF_STEREO_COUNT>
12

> <PUBCHEM_BOND_DEF_STEREO_COUNT>
0

> <PUBCHEM_BOND_UDEF_STEREO_COUNT>
0

> <PUBCHEM_ISOTOPIC_ATOM_COUNT>
0

> <PUBCHEM_COMPONENT_COUNT>
1

> <PUBCHEM_CACTVS_TAUTO_COUNT>
-1

> <PUBCHEM_COORDINATE_TYPE>
1
5
255

> <PUBCHEM_BONDANNOTATIONS>
19  54  8
19  62  8
23  2  3
20  23  3
21  31  3
22  27  3
26  34  3
25  3  3
24  4  3
43  52  3
48  55  8
48  56  8
27  5  3
51  54  8
51  57  8
55  58  8
56  59  8
57  60  8
58  61  8
59  61  8
28  6  3
60  62  8
29  7  3
30  8  3

$$$$
