14108469
  -OEChem-09122009402D

108113  0     1  0  0  0  0  0999 V2000
    8.6560   -0.4647    0.0000 O   0  0  0  0  0  0  0  0  0  0  0  0
    9.2011    1.6791    0.0000 O   0  0  0  0  0  0  0  0  0  0  0  0
    8.6458    2.7156    0.0000 O   0  0  0  0  0  0  0  0  0  0  0  0
    7.9027   -0.8475    0.0000 O   0  0  0  0  0  0  0  0  0  0  0  0
   10.2600    2.2625    0.0000 O   0  0  0  0  0  0  0  0  0  0  0  0
    6.9019    2.6384    0.0000 O   0  0  0  0  0  0  0  0  0  0  0  0
    5.2979   -0.3392    0.0000 O   0  0  0  0  0  0  0  0  0  0  0  0
    5.3103    1.6733    0.0000 O   0  0  0  0  0  0  0  0  0  0  0  0
    8.1524    3.0761    0.0000 O   0  0  0  0  0  0  0  0  0  0  0  0
    9.5765   -1.8445    0.0000 O   0  0  0  0  0  0  0  0  0  0  0  0
   10.8126    2.5089    0.0000 O   0  0  0  0  0  0  0  0  0  0  0  0
   10.4918    3.2850    0.0000 O   0  0  0  0  0  0  0  0  0  0  0  0
   11.6005    1.1657    0.0000 O   0  0  0  0  0  0  0  0  0  0  0  0
    5.1905    2.3722    0.0000 O   0  0  0  0  0  0  0  0  0  0  0  0
    4.4247   -1.8248    0.0000 O   0  0  0  0  0  0  0  0  0  0  0  0
    4.4257    0.1842    0.0000 O   0  0  0  0  0  0  0  0  0  0  0  0
    8.0578    4.8056    0.0000 O   0  0  0  0  0  0  0  0  0  0  0  0
   10.4353   -3.3384    0.0000 O   0  0  0  0  0  0  0  0  0  0  0  0
    2.5107    2.9106    0.0000 O   0  0  0  0  0  0  0  0  0  0  0  0
    6.9979   -3.3168    0.0000 N   0  0  0  0  0  0  0  0  0  0  0  0
    7.9047    0.1500    0.0000 C   0  0  3  0  0  0  0  0  0  0  0  0
    7.9168    1.1206    0.0000 C   0  0  3  0  0  0  0  0  0  0  0  0
   10.0370    0.6088    0.0000 C   0  0  3  0  0  0  0  0  0  0  0  0
    8.8961    0.7267    0.0000 C   0  0  3  0  0  0  0  0  0  0  0  0
    7.0306   -0.3581    0.0000 C   0  0  3  0  0  0  0  0  0  0  0  0
    8.6832    1.7163    0.0000 C   0  0  3  0  0  0  0  0  0  0  0  0
    9.6050   -0.2604    0.0000 C   0  0  3  0  0  0  0  0  0  0  0  0
    9.6268    1.4885    0.0000 C   0  0  3  0  0  0  0  0  0  0  0  0
    7.0557    1.6503    0.0000 C   0  0  3  0  0  0  0  0  0  0  0  0
    6.1574    0.1516    0.0000 C   0  0  3  0  0  0  0  0  0  0  0  0
    6.1700    1.1626    0.0000 C   0  0  3  0  0  0  0  0  0  0  0  0
    7.8622    2.1191    0.0000 C   0  0  0  0  0  0  0  0  0  0  0  0
    6.1707   -0.8686    0.0000 C   0  0  0  0  0  0  0  0  0  0  0  0
   10.2006   -1.0268    0.0000 C   0  0  0  0  0  0  0  0  0  0  0  0
   10.6000   -0.1609    0.0000 C   0  0  0  0  0  0  0  0  0  0  0  0
   10.2003    1.7183    0.0000 C   0  0  0  0  0  0  0  0  0  0  0  0
    9.4925    3.2477    0.0000 C   0  0  0  0  0  0  0  0  0  0  0  0
   11.2469    2.1010    0.0000 C   0  0  0  0  0  0  0  0  0  0  0  0
    5.9694    2.9994    0.0000 C   0  0  0  0  0  0  0  0  0  0  0  0
    5.2931   -1.3289    0.0000 C   0  0  0  0  0  0  0  0  0  0  0  0
    4.4381    1.1841    0.0000 C   0  0  0  0  0  0  0  0  0  0  0  0
    7.6058    3.9135    0.0000 C   0  0  0  0  0  0  0  0  0  0  0  0
   10.7339    0.8725    0.0000 C   0  0  0  0  0  0  0  0  0  0  0  0
    6.1479   -1.8280    0.0000 C   0  0  3  0  0  0  0  0  0  0  0  0
    9.5717   -2.8342    0.0000 C   0  0  0  0  0  0  0  0  0  0  0  0
    9.4551    4.2470    0.0000 C   0  0  0  0  0  0  0  0  0  0  0  0
   11.8801    2.8750    0.0000 C   0  0  0  0  0  0  0  0  0  0  0  0
    5.8156    3.9875    0.0000 C   0  0  0  0  0  0  0  0  0  0  0  0
    3.5784    1.6948    0.0000 C   0  0  0  0  0  0  0  0  0  0  0  0
    6.6073    3.8589    0.0000 C   0  0  0  0  0  0  0  0  0  0  0  0
    7.0074   -1.3372    0.0000 C   0  0  0  0  0  0  0  0  0  0  0  0
    8.7122   -3.3250    0.0000 C   0  0  0  0  0  0  0  0  0  0  0  0
    5.5561   -2.6341    0.0000 C   0  0  0  0  0  0  0  0  0  0  0  0
    7.8622   -1.8362    0.0000 C   0  0  0  0  0  0  0  0  0  0  0  0
    7.8574   -2.8260    0.0000 C   0  0  0  0  0  0  0  0  0  0  0  0
    2.6598    1.2995    0.0000 C   0  0  0  0  0  0  0  0  0  0  0  0
    3.4862    2.6906    0.0000 C   0  0  0  0  0  0  0  0  0  0  0  0
    8.7074   -4.3148    0.0000 C   0  0  0  0  0  0  0  0  0  0  0  0
    2.0000    2.0509    0.0000 C   0  0  0  0  0  0  0  0  0  0  0  0
    7.8479   -4.8056    0.0000 C   0  0  0  0  0  0  0  0  0  0  0  0
    6.9932   -4.3066    0.0000 C   0  0  0  0  0  0  0  0  0  0  0  0
   10.6569    0.6011    0.0000 H   0  0  0  0  0  0  0  0  0  0  0  0
    8.4128    1.1151    0.0000 H   0  0  0  0  0  0  0  0  0  0  0  0
    9.1631    2.1089    0.0000 H   0  0  0  0  0  0  0  0  0  0  0  0
   10.2419    1.4114    0.0000 H   0  0  0  0  0  0  0  0  0  0  0  0
    6.4992    1.9236    0.0000 H   0  0  0  0  0  0  0  0  0  0  0  0
    6.6970    0.4570    0.0000 H   0  0  0  0  0  0  0  0  0  0  0  0
    5.6293    0.8593    0.0000 H   0  0  0  0  0  0  0  0  0  0  0  0
    7.3887    2.5193    0.0000 H   0  0  0  0  0  0  0  0  0  0  0  0
    8.4778    2.0450    0.0000 H   0  0  0  0  0  0  0  0  0  0  0  0
    5.8542   -0.3355    0.0000 H   0  0  0  0  0  0  0  0  0  0  0  0
    5.6376   -1.1851    0.0000 H   0  0  0  0  0  0  0  0  0  0  0  0
    6.4873   -1.4017    0.0000 H   0  0  0  0  0  0  0  0  0  0  0  0
   10.6593   -1.4439    0.0000 H   0  0  0  0  0  0  0  0  0  0  0  0
   10.6556   -0.6056    0.0000 H   0  0  0  0  0  0  0  0  0  0  0  0
   10.6618   -0.7778    0.0000 H   0  0  0  0  0  0  0  0  0  0  0  0
   11.2170   -0.0992    0.0000 H   0  0  0  0  0  0  0  0  0  0  0  0
   10.5383    0.4560    0.0000 H   0  0  0  0  0  0  0  0  0  0  0  0
    8.3824   -1.2402    0.0000 H   0  0  0  0  0  0  0  0  0  0  0  0
   10.2095    0.5417    0.0000 H   0  0  0  0  0  0  0  0  0  0  0  0
   11.0647    0.3482    0.0000 H   0  0  0  0  0  0  0  0  0  0  0  0
   11.2582    1.2033    0.0000 H   0  0  0  0  0  0  0  0  0  0  0  0
    6.5605   -2.2907    0.0000 H   0  0  0  0  0  0  0  0  0  0  0  0
   10.0747    4.2701    0.0000 H   0  0  0  0  0  0  0  0  0  0  0  0
    9.4319    4.8665    0.0000 H   0  0  0  0  0  0  0  0  0  0  0  0
    8.8355    4.2238    0.0000 H   0  0  0  0  0  0  0  0  0  0  0  0
   12.3600    2.4824    0.0000 H   0  0  0  0  0  0  0  0  0  0  0  0
   12.2727    3.3549    0.0000 H   0  0  0  0  0  0  0  0  0  0  0  0
   11.4003    3.2676    0.0000 H   0  0  0  0  0  0  0  0  0  0  0  0
    6.4283    4.0828    0.0000 H   0  0  0  0  0  0  0  0  0  0  0  0
    5.7203    4.6001    0.0000 H   0  0  0  0  0  0  0  0  0  0  0  0
    5.2030    3.8922    0.0000 H   0  0  0  0  0  0  0  0  0  0  0  0
    6.5734    4.4780    0.0000 H   0  0  0  0  0  0  0  0  0  0  0  0
    5.9882    3.8250    0.0000 H   0  0  0  0  0  0  0  0  0  0  0  0
    6.6412    3.2398    0.0000 H   0  0  0  0  0  0  0  0  0  0  0  0
    7.4082   -0.8642    0.0000 H   0  0  0  0  0  0  0  0  0  0  0  0
    6.6112   -0.8603    0.0000 H   0  0  0  0  0  0  0  0  0  0  0  0
    5.0563   -2.2672    0.0000 H   0  0  0  0  0  0  0  0  0  0  0  0
    5.1892   -3.1338    0.0000 H   0  0  0  0  0  0  0  0  0  0  0  0
    6.0559   -3.0010    0.0000 H   0  0  0  0  0  0  0  0  0  0  0  0
    8.4722   -1.9468    0.0000 H   0  0  0  0  0  0  0  0  0  0  0  0
    8.0770   -1.2546    0.0000 H   0  0  0  0  0  0  0  0  0  0  0  0
    2.5234    0.6947    0.0000 H   0  0  0  0  0  0  0  0  0  0  0  0
    3.9521    3.0997    0.0000 H   0  0  0  0  0  0  0  0  0  0  0  0
    9.2429   -4.6274    0.0000 H   0  0  0  0  0  0  0  0  0  0  0  0
    1.3826    1.9937    0.0000 H   0  0  0  0  0  0  0  0  0  0  0  0
    7.8449   -5.4256    0.0000 H   0  0  0  0  0  0  0  0  0  0  0  0
    6.4547   -4.6140    0.0000 H   0  0  0  0  0  0  0  0  0  0  0  0
  1 21  1  0  0  0  0
  1 27  1  0  0  0  0
  2 24  1  0  0  0  0
  2 36  1  0  0  0  0
  3 26  1  0  0  0  0
  3 37  1  0  0  0  0
  4 25  1  0  0  0  0
  4 79  1  0  0  0  0
  5 28  1  0  0  0  0
  5 38  1  0  0  0  0
  6 29  1  0  0  0  0
  6 39  1  0  0  0  0
  7 30  1  0  0  0  0
  7 40  1  0  0  0  0
  8 31  1  0  0  0  0
  8 41  1  0  0  0  0
  9 32  1  0  0  0  0
  9 42  1  0  0  0  0
 10 34  1  0  0  0  0
 10 45  1  0  0  0  0
 11 36  2  0  0  0  0
 12 37  2  0  0  0  0
 13 38  2  0  0  0  0
 14 39  2  0  0  0  0
 15 40  2  0  0  0  0
 16 41  2  0  0  0  0
 17 42  2  0  0  0  0
 18 45  2  0  0  0  0
 19 57  1  0  0  0  0
 19 59  1  0  0  0  0
 20 55  1  0  0  0  0
 20 61  2  0  0  0  0
 21 22  1  0  0  0  0
 21 24  1  0  0  0  0
 21 25  1  0  0  0  0
 22 26  1  0  0  0  0
 22 29  1  0  0  0  0
 22 32  1  0  0  0  0
 23 24  1  0  0  0  0
 23 27  1  0  0  0  0
 23 28  1  0  0  0  0
 23 62  1  0  0  0  0
 24 63  1  0  0  0  0
 25 30  1  0  0  0  0
 25 33  1  0  0  0  0
 26 28  1  0  0  0  0
 26 64  1  0  0  0  0
 27 34  1  0  0  0  0
 27 35  1  0  0  0  0
 28 65  1  0  0  0  0
 29 31  1  0  0  0  0
 29 66  1  0  0  0  0
 30 31  1  0  0  0  0
 30 67  1  0  0  0  0
 31 68  1  0  0  0  0
 32 69  1  0  0  0  0
 32 70  1  0  0  0  0
 33 71  1  0  0  0  0
 33 72  1  0  0  0  0
 33 73  1  0  0  0  0
 34 74  1  0  0  0  0
 34 75  1  0  0  0  0
 35 76  1  0  0  0  0
 35 77  1  0  0  0  0
 35 78  1  0  0  0  0
 36 43  1  0  0  0  0
 37 46  1  0  0  0  0
 38 47  1  0  0  0  0
 39 48  1  0  0  0  0
 40 44  1  0  0  0  0
 41 49  1  0  0  0  0
 42 50  1  0  0  0  0
 43 80  1  0  0  0  0
 43 81  1  0  0  0  0
 43 82  1  0  0  0  0
 44 51  1  0  0  0  0
 44 53  1  0  0  0  0
 44 83  1  0  0  0  0
 45 52  1  0  0  0  0
 46 84  1  0  0  0  0
 46 85  1  0  0  0  0
 46 86  1  0  0  0  0
 47 87  1  0  0  0  0
 47 88  1  0  0  0  0
 47 89  1  0  0  0  0
 48 90  1  0  0  0  0
 48 91  1  0  0  0  0
 48 92  1  0  0  0  0
 49 56  1  0  0  0  0
 49 57  2  0  0  0  0
 50 93  1  0  0  0  0
 50 94  1  0  0  0  0
 50 95  1  0  0  0  0
 51 54  1  0  0  0  0
 51 96  1  0  0  0  0
 51 97  1  0  0  0  0
 52 55  2  0  0  0  0
 52 58  1  0  0  0  0
 53 98  1  0  0  0  0
 53 99  1  0  0  0  0
 53100  1  0  0  0  0
 54 55  1  0  0  0  0
 54101  1  0  0  0  0
 54102  1  0  0  0  0
 56 59  2  0  0  0  0
 56103  1  0  0  0  0
 57104  1  0  0  0  0
 58 60  2  0  0  0  0
 58105  1  0  0  0  0
 59106  1  0  0  0  0
 60 61  1  0  0  0  0
 60107  1  0  0  0  0
 61108  1  0  0  0  0
M  END
> <PUBCHEM_COMPOUND_CID>
14108469

> <PUBCHEM_COMPOUND_CANONICALIZED>
1

> <PUBCHEM_CACTVS_COMPLEXITY>
1790

> <PUBCHEM_CACTVS_HBOND_ACCEPTOR>
20

> <PUBCHEM_CACTVS_HBOND_DONOR>
1

> <PUBCHEM_CACTVS_ROTATABLE_BOND>
14

> <PUBCHEM_CACTVS_SUBSKEYS>
AAADcfB+PgAAAAAAAAAAAAAAAAAAASJAAAA8YIAABIAAAADB4AAAHgAACAAAD1zhngY+jJIIFkCoAzz3zACCiCA1IiAI2CE+bNgNJ/7MtZuGeejn4BHL6cfb+f+fgAAAAAAAAADCAAYQADCAAAAAAAAAAA==

> <PUBCHEM_IUPAC_OPENEYE_NAME>
[20,22,23,25-tetraacetoxy-21-(acetoxymethyl)-26-hydroxy-3,15,26-trimethyl-6,16-dioxo-2,5,17-trioxa-11-azapentacyclo[16.7.1.01,21.03,24.07,12]hexacosa-7(12),8,10-trien-19-yl] furan-3-carboxylate

> <PUBCHEM_IUPAC_CAS_NAME>
3-furancarboxylic acid [20,22,23,25-tetraacetyloxy-21-(acetyloxymethyl)-26-hydroxy-3,15,26-trimethyl-6,16-dioxo-2,5,17-trioxa-11-azapentacyclo[16.7.1.01,21.03,24.07,12]hexacosa-7(12),8,10-trien-19-yl] ester

> <PUBCHEM_IUPAC_NAME_MARKUP>
[20,22,23,25-tetraacetyloxy-21-(acetyloxymethyl)-26-hydroxy-3,15,26-trimethyl-6,16-dioxo-2,5,17-trioxa-11-azapentacyclo[16.7.1.0<SUP>1,21</SUP>.0<SUP>3,24</SUP>.0<SUP>7,12</SUP>]hexacosa-7(12),8,10-trien-19-yl] furan-3-carboxylate

> <PUBCHEM_IUPAC_NAME>
[20,22,23,25-tetraacetyloxy-21-(acetyloxymethyl)-26-hydroxy-3,15,26-trimethyl-6,16-dioxo-2,5,17-trioxa-11-azapentacyclo[16.7.1.01,21.03,24.07,12]hexacosa-7(12),8,10-trien-19-yl] furan-3-carboxylate

> <PUBCHEM_IUPAC_SYSTEMATIC_NAME>
[20,22,23,25-tetraacetyloxy-21-(acetyloxymethyl)-3,15,26-trimethyl-26-oxidanyl-6,16-bis(oxidanylidene)-2,5,17-trioxa-11-azapentacyclo[16.7.1.01,21.03,24.07,12]hexacosa-7(12),8,10-trien-19-yl] furan-3-carboxylate

> <PUBCHEM_IUPAC_TRADITIONAL_NAME>
furan-3-carboxylic acid [20,22,23,25-tetraacetoxy-21-(acetoxymethyl)-26-hydroxy-6,16-diketo-3,15,26-trimethyl-2,5,17-trioxa-11-azapentacyclo[16.7.1.01,21.03,24.07,12]hexacosa-7(12),8,10-trien-19-yl] ester

> <PUBCHEM_IUPAC_INCHI>
InChI=1S/C41H47NO19/c1-19-11-12-27-26(10-9-14-42-27)37(50)54-17-38(7)28-29(55-21(3)44)33(57-23(5)46)40(18-53-20(2)43)34(58-24(6)47)30(59-36(49)25-13-15-52-16-25)32(60-35(19)48)39(8,51)41(40,61-38)31(28)56-22(4)45/h9-10,13-16,19,28-34,51H,11-12,17-18H2,1-8H3

> <PUBCHEM_IUPAC_INCHIKEY>
QFIYSPKZWOALMZ-UHFFFAOYSA-N

> <PUBCHEM_XLOGP3_AA>
1.2

> <PUBCHEM_EXACT_MASS>
857.274228

> <PUBCHEM_MOLECULAR_FORMULA>
C41H47NO19

> <PUBCHEM_MOLECULAR_WEIGHT>
857.8

> <PUBCHEM_OPENEYE_CAN_SMILES>
CC1CCC2=C(C=CC=N2)C(=O)OCC3(C4C(C(C5(C(C(C(C(C5(C4OC(=O)C)O3)(C)O)OC1=O)OC(=O)C6=COC=C6)OC(=O)C)COC(=O)C)OC(=O)C)OC(=O)C)C

> <PUBCHEM_OPENEYE_ISO_SMILES>
CC1CCC2=C(C=CC=N2)C(=O)OCC3(C4C(C(C5(C(C(C(C(C5(C4OC(=O)C)O3)(C)O)OC1=O)OC(=O)C6=COC=C6)OC(=O)C)COC(=O)C)OC(=O)C)OC(=O)C)C

> <PUBCHEM_CACTVS_TPSA>
266

> <PUBCHEM_MONOISOTOPIC_WEIGHT>
857.274228

> <PUBCHEM_TOTAL_CHARGE>
0

> <PUBCHEM_HEAVY_ATOM_COUNT>
61

> <PUBCHEM_ATOM_DEF_STEREO_COUNT>
0

> <PUBCHEM_ATOM_UDEF_STEREO_COUNT>
12

> <PUBCHEM_BOND_DEF_STEREO_COUNT>
0

> <PUBCHEM_BOND_UDEF_STEREO_COUNT>
0

> <PUBCHEM_ISOTOPIC_ATOM_COUNT>
0

> <PUBCHEM_COMPONENT_COUNT>
1

> <PUBCHEM_CACTVS_TAUTO_COUNT>
-1

> <PUBCHEM_COORDINATE_TYPE>
1
5
255

> <PUBCHEM_BONDANNOTATIONS>
19  57  8
19  59  8
24  2  3
20  55  8
20  61  8
21  24  3
22  32  3
23  28  3
27  35  3
26  3  3
25  4  3
44  53  3
49  56  8
49  57  8
28  5  3
52  55  8
52  58  8
56  59  8
58  60  8
29  6  3
60  61  8
30  7  3
31  8  3

$$$$
