101018697
  -OEChem-09122010042D

 99103  0     1  0  0  0  0  0999 V2000
    8.0540   -0.3291    0.0000 O   0  0  0  0  0  0  0  0  0  0  0  0
    6.1252   -0.7773    0.0000 O   0  0  0  0  0  0  0  0  0  0  0  0
    8.7229    0.9342    0.0000 O   0  0  0  0  0  0  0  0  0  0  0  0
    6.0796    2.2778    0.0000 O   0  0  0  0  0  0  0  0  0  0  0  0
    8.6898   -0.4553    0.0000 O   0  0  0  0  0  0  0  0  0  0  0  0
    6.9175    3.3106    0.0000 O   0  0  0  0  0  0  0  0  0  0  0  0
    3.9428    0.9253    0.0000 O   0  0  0  0  0  0  0  0  0  0  0  0
    5.1027    3.0709    0.0000 O   0  0  0  0  0  0  0  0  0  0  0  0
    8.2538    3.1843    0.0000 O   0  0  0  0  0  0  0  0  0  0  0  0
    6.9819   -3.5913    0.0000 O   0  0  0  0  0  0  0  0  0  0  0  0
    5.1534    0.6564    0.0000 O   0  0  0  0  0  0  0  0  0  0  0  0
    9.0252    2.6396    0.0000 O   0  0  0  0  0  0  0  0  0  0  0  0
    9.8639    0.8180    0.0000 O   0  0  0  0  0  0  0  0  0  0  0  0
    5.2609    3.8160    0.0000 O   0  0  0  0  0  0  0  0  0  0  0  0
    2.2477    0.4914    0.0000 O   0  0  0  0  0  0  0  0  0  0  0  0
    7.3993    4.6910    0.0000 O   0  0  0  0  0  0  0  0  0  0  0  0
    5.9415   -4.9980    0.0000 O   0  0  0  0  0  0  0  0  0  0  0  0
    5.4715   -2.3682    0.0000 N   0  0  0  0  0  0  0  0  0  0  0  0
    7.3685    0.6896    0.0000 C   0  0  1  0  0  0  0  0  0  0  0  0
    7.3762    1.6910    0.0000 C   0  0  2  0  0  0  0  0  0  0  0  0
    7.3086   -1.1472    0.0000 C   0  0  2  0  0  0  0  0  0  0  0  0
    6.9530   -0.2162    0.0000 C   0  0  1  0  0  0  0  0  0  0  0  0
    6.3051    1.3035    0.0000 C   0  0  2  0  0  0  0  0  0  0  0  0
    7.7379    0.7614    0.0000 C   0  0  1  0  0  0  0  0  0  0  0  0
    8.2221   -1.5454    0.0000 C   0  0  2  0  0  0  0  0  0  0  0  0
    7.7142   -0.2358    0.0000 C   0  0  2  0  0  0  0  0  0  0  0  0
    6.6257    2.3541    0.0000 C   0  0  2  0  0  0  0  0  0  0  0  0
    5.0802    1.3878    0.0000 C   0  0  2  0  0  0  0  0  0  0  0  0
    5.6328    2.2230    0.0000 C   0  0  2  0  0  0  0  0  0  0  0  0
    7.3839    2.6910    0.0000 C   0  0  0  0  0  0  0  0  0  0  0  0
    7.1458    2.0883    0.0000 C   0  0  0  0  0  0  0  0  0  0  0  0
    7.8388   -2.7118    0.0000 C   0  0  0  0  0  0  0  0  0  0  0  0
    9.2181   -1.6353    0.0000 C   0  0  0  0  0  0  0  0  0  0  0  0
    5.2254   -0.3410    0.0000 C   0  0  0  0  0  0  0  0  0  0  0  0
    9.3664    1.6996    0.0000 C   0  0  0  0  0  0  0  0  0  0  0  0
    9.6444   -0.1576    0.0000 C   0  0  0  0  0  0  0  0  0  0  0  0
    6.2351    4.0416    0.0000 C   0  0  0  0  0  0  0  0  0  0  0  0
    3.1242    0.0101    0.0000 C   0  0  0  0  0  0  0  0  0  0  0  0
    8.2615    4.1843    0.0000 C   0  0  0  0  0  0  0  0  0  0  0  0
    2.7911   -1.1717    0.0000 C   0  0  2  0  0  0  0  0  0  0  0  0
    4.3977   -0.9021    0.0000 C   0  0  0  0  0  0  0  0  0  0  0  0
    5.8257   -4.0047    0.0000 C   0  0  0  0  0  0  0  0  0  0  0  0
   10.3510    1.5251    0.0000 C   0  0  0  0  0  0  0  0  0  0  0  0
   10.3796   -0.8355    0.0000 C   0  0  0  0  0  0  0  0  0  0  0  0
    6.5270    4.9980    0.0000 C   0  0  0  0  0  0  0  0  0  0  0  0
    3.0111   -2.3797    0.0000 C   0  0  1  0  0  0  0  0  0  0  0  0
    9.1313    4.6776    0.0000 C   0  0  0  0  0  0  0  0  0  0  0  0
    4.6055   -3.8682    0.0000 C   0  0  0  0  0  0  0  0  0  0  0  0
    2.0000   -0.5600    0.0000 C   0  0  0  0  0  0  0  0  0  0  0  0
    3.7395   -3.3682    0.0000 C   0  0  0  0  0  0  0  0  0  0  0  0
    2.0217   -2.5250    0.0000 C   0  0  0  0  0  0  0  0  0  0  0  0
    5.4715   -3.3682    0.0000 C   0  0  0  0  0  0  0  0  0  0  0  0
    3.7395   -2.3682    0.0000 C   0  0  0  0  0  0  0  0  0  0  0  0
    4.6055   -1.8682    0.0000 C   0  0  0  0  0  0  0  0  0  0  0  0
    6.5162   -1.4549    0.0000 H   0  0  0  0  0  0  0  0  0  0  0  0
    6.4636    0.1644    0.0000 H   0  0  0  0  0  0  0  0  0  0  0  0
    8.0423    1.3016    0.0000 H   0  0  0  0  0  0  0  0  0  0  0  0
    8.2029    0.1457    0.0000 H   0  0  0  0  0  0  0  0  0  0  0  0
    6.2249    2.8271    0.0000 H   0  0  0  0  0  0  0  0  0  0  0  0
    4.9458    2.2271    0.0000 H   0  0  0  0  0  0  0  0  0  0  0  0
    5.8971    2.7838    0.0000 H   0  0  0  0  0  0  0  0  0  0  0  0
    7.1764    3.2753    0.0000 H   0  0  0  0  0  0  0  0  0  0  0  0
    6.7725    2.5881    0.0000 H   0  0  0  0  0  0  0  0  0  0  0  0
    7.5688    1.6351    0.0000 H   0  0  0  0  0  0  0  0  0  0  0  0
    7.5990    2.5114    0.0000 H   0  0  0  0  0  0  0  0  0  0  0  0
    6.7227    2.5415    0.0000 H   0  0  0  0  0  0  0  0  0  0  0  0
    8.0952   -3.2763    0.0000 H   0  0  0  0  0  0  0  0  0  0  0  0
    7.3086   -2.3904    0.0000 H   0  0  0  0  0  0  0  0  0  0  0  0
    9.1623   -2.2528    0.0000 H   0  0  0  0  0  0  0  0  0  0  0  0
    9.8356   -1.6911    0.0000 H   0  0  0  0  0  0  0  0  0  0  0  0
    9.2738   -1.0178    0.0000 H   0  0  0  0  0  0  0  0  0  0  0  0
    6.2606    2.8708    0.0000 H   0  0  0  0  0  0  0  0  0  0  0  0
    4.4831    3.0491    0.0000 H   0  0  0  0  0  0  0  0  0  0  0  0
    2.1853   -1.3037    0.0000 H   0  0  0  0  0  0  0  0  0  0  0  0
    4.0498   -0.3889    0.0000 H   0  0  0  0  0  0  0  0  0  0  0  0
    3.8845   -1.2499    0.0000 H   0  0  0  0  0  0  0  0  0  0  0  0
    4.7456   -1.4153    0.0000 H   0  0  0  0  0  0  0  0  0  0  0  0
   10.2428    0.9146    0.0000 H   0  0  0  0  0  0  0  0  0  0  0  0
   10.9615    1.4169    0.0000 H   0  0  0  0  0  0  0  0  0  0  0  0
   10.4593    2.1356    0.0000 H   0  0  0  0  0  0  0  0  0  0  0  0
    9.9593   -1.2913    0.0000 H   0  0  0  0  0  0  0  0  0  0  0  0
   10.8354   -1.2558    0.0000 H   0  0  0  0  0  0  0  0  0  0  0  0
   10.7999   -0.3797    0.0000 H   0  0  0  0  0  0  0  0  0  0  0  0
    7.1200    4.8171    0.0000 H   0  0  0  0  0  0  0  0  0  0  0  0
    6.7079    5.5910    0.0000 H   0  0  0  0  0  0  0  0  0  0  0  0
    5.9339    5.1790    0.0000 H   0  0  0  0  0  0  0  0  0  0  0  0
    2.7824   -2.9560    0.0000 H   0  0  0  0  0  0  0  0  0  0  0  0
    9.4372    4.1383    0.0000 H   0  0  0  0  0  0  0  0  0  0  0  0
    9.6706    4.9835    0.0000 H   0  0  0  0  0  0  0  0  0  0  0  0
    8.8255    5.2169    0.0000 H   0  0  0  0  0  0  0  0  0  0  0  0
    2.3792   -0.0696    0.0000 H   0  0  0  0  0  0  0  0  0  0  0  0
    1.5095   -0.1808    0.0000 H   0  0  0  0  0  0  0  0  0  0  0  0
    1.6208   -1.0505    0.0000 H   0  0  0  0  0  0  0  0  0  0  0  0
    1.9316   -1.9116    0.0000 H   0  0  0  0  0  0  0  0  0  0  0  0
    1.4083   -2.6150    0.0000 H   0  0  0  0  0  0  0  0  0  0  0  0
    2.1118   -3.1384    0.0000 H   0  0  0  0  0  0  0  0  0  0  0  0
    6.0085   -3.6782    0.0000 H   0  0  0  0  0  0  0  0  0  0  0  0
    3.2025   -2.0582    0.0000 H   0  0  0  0  0  0  0  0  0  0  0  0
    4.6055   -1.2482    0.0000 H   0  0  0  0  0  0  0  0  0  0  0  0
 19  1  1  1  0  0  0
  1 25  1  0  0  0  0
 22  2  1  1  0  0  0
  2 34  1  0  0  0  0
 24  3  1  6  0  0  0
  3 35  1  0  0  0  0
 23  4  1  6  0  0  0
  4 72  1  0  0  0  0
 26  5  1  6  0  0  0
  5 36  1  0  0  0  0
 27  6  1  6  0  0  0
  6 37  1  0  0  0  0
  7 28  1  0  0  0  0
  7 38  1  0  0  0  0
 29  8  1  6  0  0  0
  8 73  1  0  0  0  0
  9 30  1  0  0  0  0
  9 39  1  0  0  0  0
 10 32  1  0  0  0  0
 10 42  1  0  0  0  0
 11 34  2  0  0  0  0
 12 35  2  0  0  0  0
 13 36  2  0  0  0  0
 14 37  2  0  0  0  0
 15 38  2  0  0  0  0
 16 39  2  0  0  0  0
 17 42  2  0  0  0  0
 18 52  2  0  0  0  0
 18 54  1  0  0  0  0
 19 20  1  0  0  0  0
 19 22  1  0  0  0  0
 19 23  1  0  0  0  0
 20 24  1  0  0  0  0
 20 27  1  0  0  0  0
 20 30  1  6  0  0  0
 21 22  1  0  0  0  0
 21 25  1  0  0  0  0
 21 26  1  0  0  0  0
 21 55  1  6  0  0  0
 22 56  1  0  0  0  0
 23 28  1  0  0  0  0
 23 31  1  0  0  0  0
 24 26  1  0  0  0  0
 24 57  1  0  0  0  0
 25 32  1  0  0  0  0
 25 33  1  6  0  0  0
 26 58  1  0  0  0  0
 27 29  1  0  0  0  0
 27 59  1  0  0  0  0
 28 29  1  0  0  0  0
 28 60  1  6  0  0  0
 29 61  1  0  0  0  0
 30 62  1  0  0  0  0
 30 63  1  0  0  0  0
 31 64  1  0  0  0  0
 31 65  1  0  0  0  0
 31 66  1  0  0  0  0
 32 67  1  0  0  0  0
 32 68  1  0  0  0  0
 33 69  1  0  0  0  0
 33 70  1  0  0  0  0
 33 71  1  0  0  0  0
 34 41  1  0  0  0  0
 35 43  1  0  0  0  0
 36 44  1  0  0  0  0
 37 45  1  0  0  0  0
 38 40  1  0  0  0  0
 39 47  1  0  0  0  0
 40 46  1  0  0  0  0
 40 49  1  6  0  0  0
 40 74  1  0  0  0  0
 41 75  1  0  0  0  0
 41 76  1  0  0  0  0
 41 77  1  0  0  0  0
 42 48  1  0  0  0  0
 43 78  1  0  0  0  0
 43 79  1  0  0  0  0
 43 80  1  0  0  0  0
 44 81  1  0  0  0  0
 44 82  1  0  0  0  0
 44 83  1  0  0  0  0
 45 84  1  0  0  0  0
 45 85  1  0  0  0  0
 45 86  1  0  0  0  0
 46 50  1  0  0  0  0
 46 51  1  1  0  0  0
 46 87  1  0  0  0  0
 47 88  1  0  0  0  0
 47 89  1  0  0  0  0
 47 90  1  0  0  0  0
 48 50  2  0  0  0  0
 48 52  1  0  0  0  0
 49 91  1  0  0  0  0
 49 92  1  0  0  0  0
 49 93  1  0  0  0  0
 50 53  1  0  0  0  0
 51 94  1  0  0  0  0
 51 95  1  0  0  0  0
 51 96  1  0  0  0  0
 52 97  1  0  0  0  0
 53 54  2  0  0  0  0
 53 98  1  0  0  0  0
 54 99  1  0  0  0  0
M  END
> <PUBCHEM_COMPOUND_CID>
101018697

> <PUBCHEM_COMPOUND_CANONICALIZED>
1

> <PUBCHEM_CACTVS_COMPLEXITY>
1570

> <PUBCHEM_CACTVS_HBOND_ACCEPTOR>
18

> <PUBCHEM_CACTVS_HBOND_DONOR>
2

> <PUBCHEM_CACTVS_ROTATABLE_BOND>
11

> <PUBCHEM_CACTVS_SUBSKEYS>
AAADcfB+PgAAAAAAAAAAAAAAAAAAASAAAAA8YIAABIAAAADBgAAAHgAACAAAD1ThmgY+iJIIFgCoAjD3TACCgCA1AiAI2CE4bNgJNnrAtZmGcYhnwAHL6cfY+f4PgAAAAAAAAADCAAYQADCAAAAAAAAAAA==

> <PUBCHEM_IUPAC_OPENEYE_NAME>
[(1S,3R,13S,14S,17S,18R,19R,20S,21S,22R,23R,24R,25S)-19,21,22,24-tetraacetoxy-18,25-dihydroxy-3,13,14,25-tetramethyl-6,15-dioxo-2,5,16-trioxa-9-azapentacyclo[15.7.1.01,20.03,23.07,12]pentacosa-7(12),8,10-trien-20-yl]methyl acetate

> <PUBCHEM_IUPAC_CAS_NAME>
acetic acid [(1S,3R,13S,14S,17S,18R,19R,20S,21S,22R,23R,24R,25S)-19,21,22,24-tetraacetyloxy-18,25-dihydroxy-3,13,14,25-tetramethyl-6,15-dioxo-2,5,16-trioxa-9-azapentacyclo[15.7.1.01,20.03,23.07,12]pentacosa-7(12),8,10-trien-20-yl]methyl ester

> <PUBCHEM_IUPAC_NAME_MARKUP>
[(1<I>S</I>,3<I>R</I>,13<I>S</I>,14<I>S</I>,17<I>S</I>,18<I>R</I>,19<I>R</I>,20<I>S</I>,21<I>S</I>,22<I>R</I>,23<I>R</I>,24<I>R</I>,25<I>S</I>)-19,21,22,24-tetraacetyloxy-18,25-dihydroxy-3,13,14,25-tetramethyl-6,15-dioxo-2,5,16-trioxa-9-azapentacyclo[15.7.1.0<SUP>1,20</SUP>.0<SUP>3,23</SUP>.0<SUP>7,12</SUP>]pentacosa-7(12),8,10-trien-20-yl]methyl acetate

> <PUBCHEM_IUPAC_NAME>
[(1S,3R,13S,14S,17S,18R,19R,20S,21S,22R,23R,24R,25S)-19,21,22,24-tetraacetyloxy-18,25-dihydroxy-3,13,14,25-tetramethyl-6,15-dioxo-2,5,16-trioxa-9-azapentacyclo[15.7.1.01,20.03,23.07,12]pentacosa-7(12),8,10-trien-20-yl]methyl acetate

> <PUBCHEM_IUPAC_SYSTEMATIC_NAME>
[(1S,3R,13S,14S,17S,18R,19R,20S,21S,22R,23R,24R,25S)-19,21,22,24-tetraacetyloxy-3,13,14,25-tetramethyl-18,25-bis(oxidanyl)-6,15-bis(oxidanylidene)-2,5,16-trioxa-9-azapentacyclo[15.7.1.01,20.03,23.07,12]pentacosa-7(12),8,10-trien-20-yl]methyl ethanoate

> <PUBCHEM_IUPAC_TRADITIONAL_NAME>
acetic acid [(1S,3R,13S,14S,17S,18R,19R,20S,21S,22R,23R,24R,25S)-19,21,22,24-tetraacetoxy-18,25-dihydroxy-6,15-diketo-3,13,14,25-tetramethyl-2,5,16-trioxa-9-azapentacyclo[15.7.1.01,20.03,23.07,12]pentacosa-7(12),8,10-trien-20-yl]methyl ester

> <PUBCHEM_IUPAC_INCHI>
InChI=1S/C36H45NO17/c1-15-16(2)31(44)53-28-25(43)29(51-20(6)41)35(14-47-17(3)38)30(52-21(7)42)26(49-18(4)39)24-27(50-19(5)40)36(35,34(28,9)46)54-33(24,8)13-48-32(45)23-12-37-11-10-22(15)23/h10-12,15-16,24-30,43,46H,13-14H2,1-9H3/t15-,16-,24+,25-,26+,27+,28-,29-,30+,33-,34-,35-,36-/m0/s1

> <PUBCHEM_IUPAC_INCHIKEY>
NZJBHDRNBSDTHF-XWOHFTJRSA-N

> <PUBCHEM_XLOGP3_AA>
-0.1

> <PUBCHEM_EXACT_MASS>
763.268749

> <PUBCHEM_MOLECULAR_FORMULA>
C36H45NO17

> <PUBCHEM_MOLECULAR_WEIGHT>
763.7

> <PUBCHEM_OPENEYE_CAN_SMILES>
CC1C(C(=O)OC2C(C(C3(C(C(C4C(C3(C2(C)O)OC4(COC(=O)C5=C1C=CN=C5)C)OC(=O)C)OC(=O)C)OC(=O)C)COC(=O)C)OC(=O)C)O)C

> <PUBCHEM_OPENEYE_ISO_SMILES>
C[C@H]1[C@@H](C(=O)O[C@H]2[C@@H]([C@@H]([C@]3([C@@H]([C@@H]([C@@H]4[C@H]([C@@]3([C@@]2(C)O)O[C@]4(COC(=O)C5=C1C=CN=C5)C)OC(=O)C)OC(=O)C)OC(=O)C)COC(=O)C)OC(=O)C)O)C

> <PUBCHEM_CACTVS_TPSA>
247

> <PUBCHEM_MONOISOTOPIC_WEIGHT>
763.268749

> <PUBCHEM_TOTAL_CHARGE>
0

> <PUBCHEM_HEAVY_ATOM_COUNT>
54

> <PUBCHEM_ATOM_DEF_STEREO_COUNT>
13

> <PUBCHEM_ATOM_UDEF_STEREO_COUNT>
0

> <PUBCHEM_BOND_DEF_STEREO_COUNT>
0

> <PUBCHEM_BOND_UDEF_STEREO_COUNT>
0

> <PUBCHEM_ISOTOPIC_ATOM_COUNT>
0

> <PUBCHEM_COMPONENT_COUNT>
1

> <PUBCHEM_CACTVS_TAUTO_COUNT>
-1

> <PUBCHEM_COORDINATE_TYPE>
1
5
255

> <PUBCHEM_BONDANNOTATIONS>
19  1  5
18  52  8
18  54  8
22  2  5
20  30  6
21  55  6
25  33  6
28  60  6
24  3  6
23  4  6
40  49  6
46  51  5
48  50  8
48  52  8
26  5  6
50  53  8
53  54  8
27  6  6
29  8  6

$$$$
