442556
  -OEChem-09122009402D

112117  0     1  0  0  0  0  0999 V2000
    8.8095   -0.4647    0.0000 O   0  0  0  0  0  0  0  0  0  0  0  0
   10.0098    1.0065    0.0000 O   0  0  0  0  0  0  0  0  0  0  0  0
    8.6264    2.6940    0.0000 O   0  0  0  0  0  0  0  0  0  0  0  0
    8.0562   -0.8475    0.0000 O   0  0  0  0  0  0  0  0  0  0  0  0
   10.4135    2.2625    0.0000 O   0  0  0  0  0  0  0  0  0  0  0  0
    7.0555    2.6384    0.0000 O   0  0  0  0  0  0  0  0  0  0  0  0
    5.4514   -0.3392    0.0000 O   0  0  0  0  0  0  0  0  0  0  0  0
    5.4638    1.6733    0.0000 O   0  0  0  0  0  0  0  0  0  0  0  0
    8.3059    3.0761    0.0000 O   0  0  0  0  0  0  0  0  0  0  0  0
    9.7300   -1.8445    0.0000 O   0  0  0  0  0  0  0  0  0  0  0  0
   11.7315    1.1949    0.0000 O   0  0  0  0  0  0  0  0  0  0  0  0
   10.3197    3.0583    0.0000 O   0  0  0  0  0  0  0  0  0  0  0  0
   12.1229    1.9829    0.0000 O   0  0  0  0  0  0  0  0  0  0  0  0
    5.3440    2.3722    0.0000 O   0  0  0  0  0  0  0  0  0  0  0  0
    4.4467   -1.3241    0.0000 O   0  0  0  0  0  0  0  0  0  0  0  0
    4.5792    0.1842    0.0000 O   0  0  0  0  0  0  0  0  0  0  0  0
    8.2113    4.8056    0.0000 O   0  0  0  0  0  0  0  0  0  0  0  0
    5.5212   -2.4534    0.0000 O   0  0  0  0  0  0  0  0  0  0  0  0
   10.5889   -3.3384    0.0000 O   0  0  0  0  0  0  0  0  0  0  0  0
    7.1515   -3.3168    0.0000 N   0  0  0  0  0  0  0  0  0  0  0  0
    8.0582    0.1500    0.0000 C   0  0  1  0  0  0  0  0  0  0  0  0
    8.0704    1.1206    0.0000 C   0  0  2  0  0  0  0  0  0  0  0  0
   10.1905    0.6088    0.0000 C   0  0  2  0  0  0  0  0  0  0  0  0
    9.0497    0.7267    0.0000 C   0  0  1  0  0  0  0  0  0  0  0  0
    7.1842   -0.3581    0.0000 C   0  0  2  0  0  0  0  0  0  0  0  0
    8.8367    1.7163    0.0000 C   0  0  1  0  0  0  0  0  0  0  0  0
    9.7586   -0.2604    0.0000 C   0  0  2  0  0  0  0  0  0  0  0  0
    9.7803    1.4885    0.0000 C   0  0  2  0  0  0  0  0  0  0  0  0
    7.2092    1.6503    0.0000 C   0  0  2  0  0  0  0  0  0  0  0  0
    6.3110    0.1516    0.0000 C   0  0  2  0  0  0  0  0  0  0  0  0
    6.3236    1.1626    0.0000 C   0  0  2  0  0  0  0  0  0  0  0  0
    8.0158    2.1191    0.0000 C   0  0  0  0  0  0  0  0  0  0  0  0
    6.3243   -0.8686    0.0000 C   0  0  0  0  0  0  0  0  0  0  0  0
   10.3542   -1.0268    0.0000 C   0  0  0  0  0  0  0  0  0  0  0  0
   10.7276   -0.5072    0.0000 C   0  0  0  0  0  0  0  0  0  0  0  0
   10.9250    0.6037    0.0000 C   0  0  0  0  0  0  0  0  0  0  0  0
    9.3678    3.3649    0.0000 C   0  0  0  0  0  0  0  0  0  0  0  0
   11.3489    2.6161    0.0000 C   0  0  0  0  0  0  0  0  0  0  0  0
    6.1229    2.9994    0.0000 C   0  0  0  0  0  0  0  0  0  0  0  0
    5.4467   -1.3289    0.0000 C   0  0  0  0  0  0  0  0  0  0  0  0
    4.5917    1.1841    0.0000 C   0  0  0  0  0  0  0  0  0  0  0  0
    7.7594    3.9135    0.0000 C   0  0  0  0  0  0  0  0  0  0  0  0
   11.5163   -0.2028    0.0000 C   0  0  0  0  0  0  0  0  0  0  0  0
    6.3014   -1.8280    0.0000 C   0  0  3  0  0  0  0  0  0  0  0  0
    9.7253   -2.8342    0.0000 C   0  0  0  0  0  0  0  0  0  0  0  0
    9.1575    4.3426    0.0000 C   0  0  0  0  0  0  0  0  0  0  0  0
   11.5103    3.6030    0.0000 C   0  0  0  0  0  0  0  0  0  0  0  0
    5.9692    3.9875    0.0000 C   0  0  0  0  0  0  0  0  0  0  0  0
    3.7319    1.6948    0.0000 C   0  0  0  0  0  0  0  0  0  0  0  0
    6.7609    3.8589    0.0000 C   0  0  0  0  0  0  0  0  0  0  0  0
    7.1610   -1.3372    0.0000 C   0  0  0  0  0  0  0  0  0  0  0  0
    8.8657   -3.3250    0.0000 C   0  0  0  0  0  0  0  0  0  0  0  0
    6.2791   -2.8277    0.0000 C   0  0  0  0  0  0  0  0  0  0  0  0
    8.0157   -1.8362    0.0000 C   0  0  0  0  0  0  0  0  0  0  0  0
    8.0110   -2.8260    0.0000 C   0  0  0  0  0  0  0  0  0  0  0  0
    2.8597    1.2056    0.0000 C   0  0  0  0  0  0  0  0  0  0  0  0
    3.7444    2.6947    0.0000 C   0  0  0  0  0  0  0  0  0  0  0  0
    8.8610   -4.3148    0.0000 C   0  0  0  0  0  0  0  0  0  0  0  0
    2.0000    1.7164    0.0000 C   0  0  0  0  0  0  0  0  0  0  0  0
    2.8846    3.2055    0.0000 C   0  0  0  0  0  0  0  0  0  0  0  0
    8.0015   -4.8056    0.0000 C   0  0  0  0  0  0  0  0  0  0  0  0
    2.0124    2.7163    0.0000 C   0  0  0  0  0  0  0  0  0  0  0  0
    7.1467   -4.3066    0.0000 C   0  0  0  0  0  0  0  0  0  0  0  0
   10.7449    1.2531    0.0000 H   0  0  0  0  0  0  0  0  0  0  0  0
    8.5872    1.1396    0.0000 H   0  0  0  0  0  0  0  0  0  0  0  0
    9.2806    2.1492    0.0000 H   0  0  0  0  0  0  0  0  0  0  0  0
   10.3955    1.4114    0.0000 H   0  0  0  0  0  0  0  0  0  0  0  0
    6.6527    1.9236    0.0000 H   0  0  0  0  0  0  0  0  0  0  0  0
    5.5786    0.5830    0.0000 H   0  0  0  0  0  0  0  0  0  0  0  0
    5.7828    0.8593    0.0000 H   0  0  0  0  0  0  0  0  0  0  0  0
    7.5422    2.5193    0.0000 H   0  0  0  0  0  0  0  0  0  0  0  0
    8.6313    2.0450    0.0000 H   0  0  0  0  0  0  0  0  0  0  0  0
    6.0078   -0.3355    0.0000 H   0  0  0  0  0  0  0  0  0  0  0  0
    5.7912   -1.1851    0.0000 H   0  0  0  0  0  0  0  0  0  0  0  0
    6.6408   -1.4017    0.0000 H   0  0  0  0  0  0  0  0  0  0  0  0
   10.8128   -1.4439    0.0000 H   0  0  0  0  0  0  0  0  0  0  0  0
   10.8092   -0.6056    0.0000 H   0  0  0  0  0  0  0  0  0  0  0  0
   10.5746   -1.1080    0.0000 H   0  0  0  0  0  0  0  0  0  0  0  0
   11.3285   -0.6602    0.0000 H   0  0  0  0  0  0  0  0  0  0  0  0
   10.8806    0.0936    0.0000 H   0  0  0  0  0  0  0  0  0  0  0  0
    8.5360   -1.2402    0.0000 H   0  0  0  0  0  0  0  0  0  0  0  0
   11.0163   -0.5694    0.0000 H   0  0  0  0  0  0  0  0  0  0  0  0
   11.8829   -0.7028    0.0000 H   0  0  0  0  0  0  0  0  0  0  0  0
   12.0163    0.1638    0.0000 H   0  0  0  0  0  0  0  0  0  0  0  0
    9.7636    4.4730    0.0000 H   0  0  0  0  0  0  0  0  0  0  0  0
    9.0271    4.9487    0.0000 H   0  0  0  0  0  0  0  0  0  0  0  0
    8.5514    4.2121    0.0000 H   0  0  0  0  0  0  0  0  0  0  0  0
   12.1222    3.5029    0.0000 H   0  0  0  0  0  0  0  0  0  0  0  0
   11.6104    4.2149    0.0000 H   0  0  0  0  0  0  0  0  0  0  0  0
   10.8985    3.7031    0.0000 H   0  0  0  0  0  0  0  0  0  0  0  0
    6.5818    4.0828    0.0000 H   0  0  0  0  0  0  0  0  0  0  0  0
    5.8739    4.6001    0.0000 H   0  0  0  0  0  0  0  0  0  0  0  0
    5.3566    3.8922    0.0000 H   0  0  0  0  0  0  0  0  0  0  0  0
    6.7270    4.4780    0.0000 H   0  0  0  0  0  0  0  0  0  0  0  0
    6.1418    3.8250    0.0000 H   0  0  0  0  0  0  0  0  0  0  0  0
    6.7947    3.2398    0.0000 H   0  0  0  0  0  0  0  0  0  0  0  0
    7.5618   -0.8642    0.0000 H   0  0  0  0  0  0  0  0  0  0  0  0
    6.7647   -0.8603    0.0000 H   0  0  0  0  0  0  0  0  0  0  0  0
    5.6593   -2.8139    0.0000 H   0  0  0  0  0  0  0  0  0  0  0  0
    6.2653   -3.4476    0.0000 H   0  0  0  0  0  0  0  0  0  0  0  0
    6.8990   -2.8415    0.0000 H   0  0  0  0  0  0  0  0  0  0  0  0
    8.6258   -1.9468    0.0000 H   0  0  0  0  0  0  0  0  0  0  0  0
    8.2306   -1.2546    0.0000 H   0  0  0  0  0  0  0  0  0  0  0  0
    4.9084   -2.5474    0.0000 H   0  0  0  0  0  0  0  0  0  0  0  0
    2.8520    0.5857    0.0000 H   0  0  0  0  0  0  0  0  0  0  0  0
    4.2851    2.9980    0.0000 H   0  0  0  0  0  0  0  0  0  0  0  0
    9.3964   -4.6274    0.0000 H   0  0  0  0  0  0  0  0  0  0  0  0
    1.4592    1.4130    0.0000 H   0  0  0  0  0  0  0  0  0  0  0  0
    2.8923    3.8254    0.0000 H   0  0  0  0  0  0  0  0  0  0  0  0
    7.9985   -5.4256    0.0000 H   0  0  0  0  0  0  0  0  0  0  0  0
    1.4794    3.0329    0.0000 H   0  0  0  0  0  0  0  0  0  0  0  0
    6.6083   -4.6140    0.0000 H   0  0  0  0  0  0  0  0  0  0  0  0
 21  1  1  1  0  0  0
  1 27  1  0  0  0  0
 24  2  1  6  0  0  0
  2 36  1  0  0  0  0
 26  3  1  6  0  0  0
  3 37  1  0  0  0  0
 25  4  1  1  0  0  0
  4 81  1  0  0  0  0
 28  5  1  6  0  0  0
  5 38  1  0  0  0  0
 29  6  1  6  0  0  0
  6 39  1  0  0  0  0
  7 30  1  0  0  0  0
  7 40  1  0  0  0  0
 31  8  1  6  0  0  0
  8 41  1  0  0  0  0
  9 32  1  0  0  0  0
  9 42  1  0  0  0  0
 10 34  1  0  0  0  0
 10 45  1  0  0  0  0
 11 36  2  0  0  0  0
 12 37  2  0  0  0  0
 13 38  2  0  0  0  0
 14 39  2  0  0  0  0
 15 40  2  0  0  0  0
 16 41  2  0  0  0  0
 17 42  2  0  0  0  0
 18 44  1  0  0  0  0
 18104  1  0  0  0  0
 19 45  2  0  0  0  0
 20 55  1  0  0  0  0
 20 63  2  0  0  0  0
 21 22  1  0  0  0  0
 21 24  1  0  0  0  0
 21 25  1  0  0  0  0
 22 26  1  0  0  0  0
 22 29  1  0  0  0  0
 22 32  1  6  0  0  0
 23 24  1  0  0  0  0
 23 27  1  0  0  0  0
 23 28  1  0  0  0  0
 23 64  1  6  0  0  0
 24 65  1  0  0  0  0
 25 30  1  0  0  0  0
 25 33  1  0  0  0  0
 26 28  1  0  0  0  0
 26 66  1  0  0  0  0
 27 34  1  0  0  0  0
 27 35  1  1  0  0  0
 28 67  1  0  0  0  0
 29 31  1  0  0  0  0
 29 68  1  0  0  0  0
 30 31  1  0  0  0  0
 30 69  1  6  0  0  0
 31 70  1  0  0  0  0
 32 71  1  0  0  0  0
 32 72  1  0  0  0  0
 33 73  1  0  0  0  0
 33 74  1  0  0  0  0
 33 75  1  0  0  0  0
 34 76  1  0  0  0  0
 34 77  1  0  0  0  0
 35 78  1  0  0  0  0
 35 79  1  0  0  0  0
 35 80  1  0  0  0  0
 36 43  1  0  0  0  0
 37 46  1  0  0  0  0
 38 47  1  0  0  0  0
 39 48  1  0  0  0  0
 40 44  1  0  0  0  0
 41 49  1  0  0  0  0
 42 50  1  0  0  0  0
 43 82  1  0  0  0  0
 43 83  1  0  0  0  0
 43 84  1  0  0  0  0
 44 51  1  0  0  0  0
 44 53  1  0  0  0  0
 45 52  1  0  0  0  0
 46 85  1  0  0  0  0
 46 86  1  0  0  0  0
 46 87  1  0  0  0  0
 47 88  1  0  0  0  0
 47 89  1  0  0  0  0
 47 90  1  0  0  0  0
 48 91  1  0  0  0  0
 48 92  1  0  0  0  0
 48 93  1  0  0  0  0
 49 56  2  0  0  0  0
 49 57  1  0  0  0  0
 50 94  1  0  0  0  0
 50 95  1  0  0  0  0
 50 96  1  0  0  0  0
 51 54  1  0  0  0  0
 51 97  1  0  0  0  0
 51 98  1  0  0  0  0
 52 55  2  0  0  0  0
 52 58  1  0  0  0  0
 53 99  1  0  0  0  0
 53100  1  0  0  0  0
 53101  1  0  0  0  0
 54 55  1  0  0  0  0
 54102  1  0  0  0  0
 54103  1  0  0  0  0
 56 59  1  0  0  0  0
 56105  1  0  0  0  0
 57 60  2  0  0  0  0
 57106  1  0  0  0  0
 58 61  2  0  0  0  0
 58107  1  0  0  0  0
 59 62  2  0  0  0  0
 59108  1  0  0  0  0
 60 62  1  0  0  0  0
 60109  1  0  0  0  0
 61 63  1  0  0  0  0
 61110  1  0  0  0  0
 62111  1  0  0  0  0
 63112  1  0  0  0  0
M  END
> <PUBCHEM_COMPOUND_CID>
442556

> <PUBCHEM_COMPOUND_CANONICALIZED>
1

> <PUBCHEM_CACTVS_COMPLEXITY>
1850

> <PUBCHEM_CACTVS_HBOND_ACCEPTOR>
20

> <PUBCHEM_CACTVS_HBOND_DONOR>
2

> <PUBCHEM_CACTVS_ROTATABLE_BOND>
14

> <PUBCHEM_CACTVS_SUBSKEYS>
AAADcfB+PgAAAAAAAAAAAAAAAAAAASAAAAA8YMEABIAAAADBwAAAHgAACAAAD1zhngY+iJIIFgCoAzT3TAKCgCA1AiAI2CF4bNgJJvrAtZmGcYhnwAHL6cf4+f+fgAAAAAAAAADCAAYQADCAAAAAAAAAAA==

> <PUBCHEM_IUPAC_OPENEYE_NAME>
[(1S,3R,18S,19R,20R,21R,22S,23R,24R,25R,26S)-20,22,23,25-tetraacetoxy-21-(acetoxymethyl)-15,26-dihydroxy-3,15,26-trimethyl-6,16-dioxo-2,5,17-trioxa-11-azapentacyclo[16.7.1.01,21.03,24.07,12]hexacosa-7(12),8,10-trien-19-yl] benzoate

> <PUBCHEM_IUPAC_CAS_NAME>
benzoic acid [(1S,3R,18S,19R,20R,21R,22S,23R,24R,25R,26S)-20,22,23,25-tetraacetyloxy-21-(acetyloxymethyl)-15,26-dihydroxy-3,15,26-trimethyl-6,16-dioxo-2,5,17-trioxa-11-azapentacyclo[16.7.1.01,21.03,24.07,12]hexacosa-7(12),8,10-trien-19-yl] ester

> <PUBCHEM_IUPAC_NAME_MARKUP>
[(1<I>S</I>,3<I>R</I>,18<I>S</I>,19<I>R</I>,20<I>R</I>,21<I>R</I>,22<I>S</I>,23<I>R</I>,24<I>R</I>,25<I>R</I>,26<I>S</I>)-20,22,23,25-tetraacetyloxy-21-(acetyloxymethyl)-15,26-dihydroxy-3,15,26-trimethyl-6,16-dioxo-2,5,17-trioxa-11-azapentacyclo[16.7.1.0<SUP>1,21</SUP>.0<SUP>3,24</SUP>.0<SUP>7,12</SUP>]hexacosa-7(12),8,10-trien-19-yl] benzoate

> <PUBCHEM_IUPAC_NAME>
[(1S,3R,18S,19R,20R,21R,22S,23R,24R,25R,26S)-20,22,23,25-tetraacetyloxy-21-(acetyloxymethyl)-15,26-dihydroxy-3,15,26-trimethyl-6,16-dioxo-2,5,17-trioxa-11-azapentacyclo[16.7.1.01,21.03,24.07,12]hexacosa-7(12),8,10-trien-19-yl] benzoate

> <PUBCHEM_IUPAC_SYSTEMATIC_NAME>
[(1S,3R,18S,19R,20R,21R,22S,23R,24R,25R,26S)-20,22,23,25-tetraacetyloxy-21-(acetyloxymethyl)-3,15,26-trimethyl-15,26-bis(oxidanyl)-6,16-bis(oxidanylidene)-2,5,17-trioxa-11-azapentacyclo[16.7.1.01,21.03,24.07,12]hexacosa-7(12),8,10-trien-19-yl] benzoate

> <PUBCHEM_IUPAC_TRADITIONAL_NAME>
benzoic acid [(1S,3R,18S,19R,20R,21R,22S,23R,24R,25R,26S)-20,22,23,25-tetraacetoxy-21-(acetoxymethyl)-15,26-dihydroxy-6,16-diketo-3,15,26-trimethyl-2,5,17-trioxa-11-azapentacyclo[16.7.1.01,21.03,24.07,12]hexacosa-7(12),8,10-trien-19-yl] ester

> <PUBCHEM_IUPAC_INCHI>
InChI=1S/C43H49NO19/c1-21(45)55-20-42-34(59-24(4)48)30(57-22(2)46)29-32(58-23(3)47)43(42)41(8,54)33(31(35(42)60-25(5)49)61-36(50)26-13-10-9-11-14-26)62-38(52)39(6,53)17-16-28-27(15-12-18-44-28)37(51)56-19-40(29,7)63-43/h9-15,18,29-35,53-54H,16-17,19-20H2,1-8H3/t29-,30-,31+,32-,33+,34-,35+,39?,40+,41+,42-,43+/m1/s1

> <PUBCHEM_IUPAC_INCHIKEY>
XQDBHSNYTFRCNJ-OURLNJDISA-N

> <PUBCHEM_XLOGP3_AA>
1.2

> <PUBCHEM_EXACT_MASS>
883.289878

> <PUBCHEM_MOLECULAR_FORMULA>
C43H49NO19

> <PUBCHEM_MOLECULAR_WEIGHT>
883.8

> <PUBCHEM_OPENEYE_CAN_SMILES>
CC(=O)OCC12C(C(C3C(C14C(C(C(C2OC(=O)C)OC(=O)C5=CC=CC=C5)OC(=O)C(CCC6=C(C=CC=N6)C(=O)OCC3(O4)C)(C)O)(C)O)OC(=O)C)OC(=O)C)OC(=O)C

> <PUBCHEM_OPENEYE_ISO_SMILES>
CC(=O)OC[C@]12[C@@H]([C@@H]([C@@H]3[C@H]([C@]14[C@@]([C@H]([C@@H]([C@@H]2OC(=O)C)OC(=O)C5=CC=CC=C5)OC(=O)C(CCC6=C(C=CC=N6)C(=O)OC[C@@]3(O4)C)(C)O)(C)O)OC(=O)C)OC(=O)C)OC(=O)C

> <PUBCHEM_CACTVS_TPSA>
273

> <PUBCHEM_MONOISOTOPIC_WEIGHT>
883.289878

> <PUBCHEM_TOTAL_CHARGE>
0

> <PUBCHEM_HEAVY_ATOM_COUNT>
63

> <PUBCHEM_ATOM_DEF_STEREO_COUNT>
11

> <PUBCHEM_ATOM_UDEF_STEREO_COUNT>
1

> <PUBCHEM_BOND_DEF_STEREO_COUNT>
0

> <PUBCHEM_BOND_UDEF_STEREO_COUNT>
0

> <PUBCHEM_ISOTOPIC_ATOM_COUNT>
0

> <PUBCHEM_COMPONENT_COUNT>
1

> <PUBCHEM_CACTVS_TAUTO_COUNT>
-1

> <PUBCHEM_COORDINATE_TYPE>
1
5
255

> <PUBCHEM_BONDANNOTATIONS>
21  1  5
44  18  3
24  2  6
20  55  8
20  63  8
22  32  6
23  64  6
27  35  5
26  3  6
30  69  6
25  4  5
49  56  8
49  57  8
28  5  6
52  55  8
52  58  8
56  59  8
57  60  8
58  61  8
59  62  8
29  6  6
60  62  8
61  63  8
31  8  6

$$$$
