71717032
  -OEChem-09122010022D

104109  0     1  0  0  0  0  0999 V2000
    8.3474   -0.7659    0.0000 O   0  0  0  0  0  0  0  0  0  0  0  0
    6.4187   -1.2141    0.0000 O   0  0  0  0  0  0  0  0  0  0  0  0
    9.0164    0.4973    0.0000 O   0  0  0  0  0  0  0  0  0  0  0  0
    6.3731    1.8410    0.0000 O   0  0  0  0  0  0  0  0  0  0  0  0
    8.9832   -0.8921    0.0000 O   0  0  0  0  0  0  0  0  0  0  0  0
    7.2110    2.8737    0.0000 O   0  0  0  0  0  0  0  0  0  0  0  0
    4.2362    0.4885    0.0000 O   0  0  0  0  0  0  0  0  0  0  0  0
    5.3962    2.6341    0.0000 O   0  0  0  0  0  0  0  0  0  0  0  0
    8.5472    2.7475    0.0000 O   0  0  0  0  0  0  0  0  0  0  0  0
    7.2753   -4.0281    0.0000 O   0  0  0  0  0  0  0  0  0  0  0  0
    9.6102    2.1244    0.0000 O   0  0  0  0  0  0  0  0  0  0  0  0
   10.1574    0.3812    0.0000 O   0  0  0  0  0  0  0  0  0  0  0  0
    5.5543    3.3792    0.0000 O   0  0  0  0  0  0  0  0  0  0  0  0
    2.5412    0.0546    0.0000 O   0  0  0  0  0  0  0  0  0  0  0  0
    3.9275    1.7158    0.0000 O   0  0  0  0  0  0  0  0  0  0  0  0
    7.6928    4.2541    0.0000 O   0  0  0  0  0  0  0  0  0  0  0  0
    2.1320   -1.3043    0.0000 O   0  0  0  0  0  0  0  0  0  0  0  0
    6.2349   -5.4348    0.0000 O   0  0  0  0  0  0  0  0  0  0  0  0
   11.0100    4.5650    0.0000 O   0  0  0  0  0  0  0  0  0  0  0  0
    5.7650   -2.8050    0.0000 N   0  0  0  0  0  0  0  0  0  0  0  0
    7.6620    0.2528    0.0000 C   0  0  1  0  0  0  0  0  0  0  0  0
    7.6697    1.2542    0.0000 C   0  0  2  0  0  0  0  0  0  0  0  0
    7.6020   -1.5840    0.0000 C   0  0  2  0  0  0  0  0  0  0  0  0
    7.2464   -0.6530    0.0000 C   0  0  1  0  0  0  0  0  0  0  0  0
    6.5986    0.8667    0.0000 C   0  0  2  0  0  0  0  0  0  0  0  0
    8.0314    0.3246    0.0000 C   0  0  1  0  0  0  0  0  0  0  0  0
    8.5156   -1.9822    0.0000 C   0  0  2  0  0  0  0  0  0  0  0  0
    8.0076   -0.6726    0.0000 C   0  0  2  0  0  0  0  0  0  0  0  0
    6.9192    1.9173    0.0000 C   0  0  2  0  0  0  0  0  0  0  0  0
    5.3736    0.9510    0.0000 C   0  0  2  0  0  0  0  0  0  0  0  0
    5.9263    1.7862    0.0000 C   0  0  2  0  0  0  0  0  0  0  0  0
    7.6774    2.2542    0.0000 C   0  0  0  0  0  0  0  0  0  0  0  0
    7.4392    1.6515    0.0000 C   0  0  0  0  0  0  0  0  0  0  0  0
    8.1322   -3.1487    0.0000 C   0  0  0  0  0  0  0  0  0  0  0  0
    9.5115   -2.0721    0.0000 C   0  0  0  0  0  0  0  0  0  0  0  0
    9.7830    1.1394    0.0000 C   0  0  0  0  0  0  0  0  0  0  0  0
    9.9379   -0.5944    0.0000 C   0  0  0  0  0  0  0  0  0  0  0  0
    6.5286    3.6047    0.0000 C   0  0  0  0  0  0  0  0  0  0  0  0
    3.4177   -0.4267    0.0000 C   0  0  0  0  0  0  0  0  0  0  0  0
    4.3968    2.5989    0.0000 C   0  0  0  0  0  0  0  0  0  0  0  0
    8.5550    3.7475    0.0000 C   0  0  0  0  0  0  0  0  0  0  0  0
    3.0846   -1.6085    0.0000 C   0  0  3  0  0  0  0  0  0  0  0  0
    6.1192   -4.4416    0.0000 C   0  0  0  0  0  0  0  0  0  0  0  0
   10.7224    0.7966    0.0000 C   0  0  0  0  0  0  0  0  0  0  0  0
   10.6731   -1.2723    0.0000 C   0  0  0  0  0  0  0  0  0  0  0  0
    6.8204    4.5612    0.0000 C   0  0  0  0  0  0  0  0  0  0  0  0
    3.3046   -2.8165    0.0000 C   0  0  3  0  0  0  0  0  0  0  0  0
    3.8666    3.4468    0.0000 C   0  0  0  0  0  0  0  0  0  0  0  0
    9.4248    4.2408    0.0000 C   0  0  0  0  0  0  0  0  0  0  0  0
    4.8990   -4.3050    0.0000 C   0  0  0  0  0  0  0  0  0  0  0  0
    2.2392   -2.1427    0.0000 C   0  0  0  0  0  0  0  0  0  0  0  0
    4.0329   -3.8050    0.0000 C   0  0  0  0  0  0  0  0  0  0  0  0
    2.3865   -3.2129    0.0000 C   0  0  0  0  0  0  0  0  0  0  0  0
    9.5370    5.2345    0.0000 C   0  0  0  0  0  0  0  0  0  0  0  0
   10.3352    3.8270    0.0000 C   0  0  0  0  0  0  0  0  0  0  0  0
    5.7650   -3.8050    0.0000 C   0  0  0  0  0  0  0  0  0  0  0  0
    4.0329   -2.8050    0.0000 C   0  0  0  0  0  0  0  0  0  0  0  0
   10.5167    5.4348    0.0000 C   0  0  0  0  0  0  0  0  0  0  0  0
    4.8990   -2.3050    0.0000 C   0  0  0  0  0  0  0  0  0  0  0  0
    6.8097   -1.8918    0.0000 H   0  0  0  0  0  0  0  0  0  0  0  0
    6.7570   -0.2724    0.0000 H   0  0  0  0  0  0  0  0  0  0  0  0
    8.5014   -0.0798    0.0000 H   0  0  0  0  0  0  0  0  0  0  0  0
    8.2859   -1.2267    0.0000 H   0  0  0  0  0  0  0  0  0  0  0  0
    6.5183    2.3903    0.0000 H   0  0  0  0  0  0  0  0  0  0  0  0
    5.2393    1.7903    0.0000 H   0  0  0  0  0  0  0  0  0  0  0  0
    6.1906    2.3470    0.0000 H   0  0  0  0  0  0  0  0  0  0  0  0
    7.4698    2.8384    0.0000 H   0  0  0  0  0  0  0  0  0  0  0  0
    7.0660    2.1512    0.0000 H   0  0  0  0  0  0  0  0  0  0  0  0
    7.8623    1.1983    0.0000 H   0  0  0  0  0  0  0  0  0  0  0  0
    7.8924    2.0746    0.0000 H   0  0  0  0  0  0  0  0  0  0  0  0
    7.0161    2.1047    0.0000 H   0  0  0  0  0  0  0  0  0  0  0  0
    8.3887   -3.7132    0.0000 H   0  0  0  0  0  0  0  0  0  0  0  0
    7.6020   -2.8273    0.0000 H   0  0  0  0  0  0  0  0  0  0  0  0
    9.4558   -2.6896    0.0000 H   0  0  0  0  0  0  0  0  0  0  0  0
   10.1290   -2.1279    0.0000 H   0  0  0  0  0  0  0  0  0  0  0  0
    9.5673   -1.4547    0.0000 H   0  0  0  0  0  0  0  0  0  0  0  0
    5.8608   -0.9436    0.0000 H   0  0  0  0  0  0  0  0  0  0  0  0
    6.5540    2.4340    0.0000 H   0  0  0  0  0  0  0  0  0  0  0  0
   10.5098    0.2141    0.0000 H   0  0  0  0  0  0  0  0  0  0  0  0
   11.3048    0.5840    0.0000 H   0  0  0  0  0  0  0  0  0  0  0  0
   10.9350    1.3790    0.0000 H   0  0  0  0  0  0  0  0  0  0  0  0
   10.2528   -1.7281    0.0000 H   0  0  0  0  0  0  0  0  0  0  0  0
   11.1289   -1.6926    0.0000 H   0  0  0  0  0  0  0  0  0  0  0  0
   11.0934   -0.8165    0.0000 H   0  0  0  0  0  0  0  0  0  0  0  0
    7.4134    4.3803    0.0000 H   0  0  0  0  0  0  0  0  0  0  0  0
    7.0014    5.1542    0.0000 H   0  0  0  0  0  0  0  0  0  0  0  0
    6.2274    4.7421    0.0000 H   0  0  0  0  0  0  0  0  0  0  0  0
    2.7580   -2.5239    0.0000 H   0  0  0  0  0  0  0  0  0  0  0  0
    4.3924    3.7755    0.0000 H   0  0  0  0  0  0  0  0  0  0  0  0
    3.5380    3.9725    0.0000 H   0  0  0  0  0  0  0  0  0  0  0  0
    3.3410    3.1182    0.0000 H   0  0  0  0  0  0  0  0  0  0  0  0
    1.9080   -1.6185    0.0000 H   0  0  0  0  0  0  0  0  0  0  0  0
    1.7150   -2.4738    0.0000 H   0  0  0  0  0  0  0  0  0  0  0  0
    2.5703   -2.6668    0.0000 H   0  0  0  0  0  0  0  0  0  0  0  0
    2.0000   -0.6985    0.0000 H   0  0  0  0  0  0  0  0  0  0  0  0
    2.1407   -2.6437    0.0000 H   0  0  0  0  0  0  0  0  0  0  0  0
    1.8173   -3.4587    0.0000 H   0  0  0  0  0  0  0  0  0  0  0  0
    2.6322   -3.7821    0.0000 H   0  0  0  0  0  0  0  0  0  0  0  0
    9.0795    5.6529    0.0000 H   0  0  0  0  0  0  0  0  0  0  0  0
   10.4594    3.2196    0.0000 H   0  0  0  0  0  0  0  0  0  0  0  0
    6.3019   -4.1150    0.0000 H   0  0  0  0  0  0  0  0  0  0  0  0
    3.4960   -2.4950    0.0000 H   0  0  0  0  0  0  0  0  0  0  0  0
   10.7733    5.9993    0.0000 H   0  0  0  0  0  0  0  0  0  0  0  0
    4.8990   -1.6850    0.0000 H   0  0  0  0  0  0  0  0  0  0  0  0
 21  1  1  1  0  0  0
  1 27  1  0  0  0  0
 24  2  1  1  0  0  0
  2 77  1  0  0  0  0
 26  3  1  6  0  0  0
  3 36  1  0  0  0  0
 25  4  1  6  0  0  0
  4 78  1  0  0  0  0
 28  5  1  6  0  0  0
  5 37  1  0  0  0  0
 29  6  1  6  0  0  0
  6 38  1  0  0  0  0
  7 30  1  0  0  0  0
  7 39  1  0  0  0  0
 31  8  1  6  0  0  0
  8 40  1  0  0  0  0
  9 32  1  0  0  0  0
  9 41  1  0  0  0  0
 10 34  1  0  0  0  0
 10 43  1  0  0  0  0
 11 36  2  0  0  0  0
 12 37  2  0  0  0  0
 13 38  2  0  0  0  0
 14 39  2  0  0  0  0
 15 40  2  0  0  0  0
 16 41  2  0  0  0  0
 17 42  1  0  0  0  0
 17 95  1  0  0  0  0
 18 43  2  0  0  0  0
 19 55  1  0  0  0  0
 19 58  1  0  0  0  0
 20 56  2  0  0  0  0
 20 59  1  0  0  0  0
 21 22  1  0  0  0  0
 21 24  1  0  0  0  0
 21 25  1  0  0  0  0
 22 26  1  0  0  0  0
 22 29  1  0  0  0  0
 22 32  1  6  0  0  0
 23 24  1  0  0  0  0
 23 27  1  0  0  0  0
 23 28  1  0  0  0  0
 23 60  1  6  0  0  0
 24 61  1  0  0  0  0
 25 30  1  0  0  0  0
 25 33  1  0  0  0  0
 26 28  1  0  0  0  0
 26 62  1  0  0  0  0
 27 34  1  0  0  0  0
 27 35  1  6  0  0  0
 28 63  1  0  0  0  0
 29 31  1  0  0  0  0
 29 64  1  0  0  0  0
 30 31  1  0  0  0  0
 30 65  1  6  0  0  0
 31 66  1  0  0  0  0
 32 67  1  0  0  0  0
 32 68  1  0  0  0  0
 33 69  1  0  0  0  0
 33 70  1  0  0  0  0
 33 71  1  0  0  0  0
 34 72  1  0  0  0  0
 34 73  1  0  0  0  0
 35 74  1  0  0  0  0
 35 75  1  0  0  0  0
 35 76  1  0  0  0  0
 36 44  1  0  0  0  0
 37 45  1  0  0  0  0
 38 46  1  0  0  0  0
 39 42  1  0  0  0  0
 40 48  1  0  0  0  0
 41 49  1  0  0  0  0
 42 47  1  0  0  0  0
 42 51  1  0  0  0  0
 43 50  1  0  0  0  0
 44 79  1  0  0  0  0
 44 80  1  0  0  0  0
 44 81  1  0  0  0  0
 45 82  1  0  0  0  0
 45 83  1  0  0  0  0
 45 84  1  0  0  0  0
 46 85  1  0  0  0  0
 46 86  1  0  0  0  0
 46 87  1  0  0  0  0
 47 52  1  0  0  0  0
 47 53  1  0  0  0  0
 47 88  1  0  0  0  0
 48 89  1  0  0  0  0
 48 90  1  0  0  0  0
 48 91  1  0  0  0  0
 49 54  1  0  0  0  0
 49 55  2  0  0  0  0
 50 52  2  0  0  0  0
 50 56  1  0  0  0  0
 51 92  1  0  0  0  0
 51 93  1  0  0  0  0
 51 94  1  0  0  0  0
 52 57  1  0  0  0  0
 53 96  1  0  0  0  0
 53 97  1  0  0  0  0
 53 98  1  0  0  0  0
 54 58  2  0  0  0  0
 54 99  1  0  0  0  0
 55100  1  0  0  0  0
 56101  1  0  0  0  0
 57 59  2  0  0  0  0
 57102  1  0  0  0  0
 58103  1  0  0  0  0
 59104  1  0  0  0  0
M  END
> <PUBCHEM_COMPOUND_CID>
71717032

> <PUBCHEM_COMPOUND_CANONICALIZED>
1

> <PUBCHEM_CACTVS_COMPLEXITY>
1740

> <PUBCHEM_CACTVS_HBOND_ACCEPTOR>
20

> <PUBCHEM_CACTVS_HBOND_DONOR>
3

> <PUBCHEM_CACTVS_ROTATABLE_BOND>
12

> <PUBCHEM_CACTVS_SUBSKEYS>
AAADcfB+PgAAAAAAAAAAAAAAAAAAASJAAAA8YIAABIAAAADB4AAAHgAACAAAD1ThmgY+jJIIFkCoAjj3zAKCiCA1IiAI2CF+bNgNN37MtZuGeejn4BHL6cfb/f5PgAAAAAAAAADCAAYQADCAAAAAAAAAAA==

> <PUBCHEM_IUPAC_OPENEYE_NAME>
[(1S,3R,17S,18R,19R,20R,21S,22R,23S,24R,25S)-18,19,21,22-tetraacetoxy-14,24,25-trihydroxy-3,13,14,25-tetramethyl-6,15-dioxo-2,5,16-trioxa-9-azapentacyclo[15.7.1.01,20.03,23.07,12]pentacosa-7(12),8,10-trien-20-yl]methyl furan-3-carboxylate

> <PUBCHEM_IUPAC_CAS_NAME>
3-furancarboxylic acid [(1S,3R,17S,18R,19R,20R,21S,22R,23S,24R,25S)-18,19,21,22-tetraacetyloxy-14,24,25-trihydroxy-3,13,14,25-tetramethyl-6,15-dioxo-2,5,16-trioxa-9-azapentacyclo[15.7.1.01,20.03,23.07,12]pentacosa-7(12),8,10-trien-20-yl]methyl ester

> <PUBCHEM_IUPAC_NAME_MARKUP>
[(1<I>S</I>,3<I>R</I>,17<I>S</I>,18<I>R</I>,19<I>R</I>,20<I>R</I>,21<I>S</I>,22<I>R</I>,23<I>S</I>,24<I>R</I>,25<I>S</I>)-18,19,21,22-tetraacetyloxy-14,24,25-trihydroxy-3,13,14,25-tetramethyl-6,15-dioxo-2,5,16-trioxa-9-azapentacyclo[15.7.1.0<SUP>1,20</SUP>.0<SUP>3,23</SUP>.0<SUP>7,12</SUP>]pentacosa-7(12),8,10-trien-20-yl]methyl furan-3-carboxylate

> <PUBCHEM_IUPAC_NAME>
[(1S,3R,17S,18R,19R,20R,21S,22R,23S,24R,25S)-18,19,21,22-tetraacetyloxy-14,24,25-trihydroxy-3,13,14,25-tetramethyl-6,15-dioxo-2,5,16-trioxa-9-azapentacyclo[15.7.1.01,20.03,23.07,12]pentacosa-7(12),8,10-trien-20-yl]methyl furan-3-carboxylate

> <PUBCHEM_IUPAC_SYSTEMATIC_NAME>
[(1S,3R,17S,18R,19R,20R,21S,22R,23S,24R,25S)-18,19,21,22-tetraacetyloxy-3,13,14,25-tetramethyl-14,24,25-tris(oxidanyl)-6,15-bis(oxidanylidene)-2,5,16-trioxa-9-azapentacyclo[15.7.1.01,20.03,23.07,12]pentacosa-7(12),8,10-trien-20-yl]methyl furan-3-carboxylate

> <PUBCHEM_IUPAC_TRADITIONAL_NAME>
furan-3-carboxylic acid [(1S,3R,17S,18R,19R,20R,21S,22R,23S,24R,25S)-18,19,21,22-tetraacetoxy-14,24,25-trihydroxy-6,15-diketo-3,13,14,25-tetramethyl-2,5,16-trioxa-9-azapentacyclo[15.7.1.01,20.03,23.07,12]pentacosa-7(12),8,10-trien-20-yl]methyl ester

> <PUBCHEM_IUPAC_INCHI>
InChI=1S/C39H45NO19/c1-17-23-9-11-40-13-24(23)33(47)52-15-35(6)25-26(54-18(2)41)30(56-20(4)43)38(16-53-32(46)22-10-12-51-14-22)31(57-21(5)44)27(55-19(3)42)29(58-34(48)36(17,7)49)37(8,50)39(38,59-35)28(25)45/h9-14,17,25-31,45,49-50H,15-16H2,1-8H3/t17?,25-,26-,27+,28-,29+,30-,31+,35+,36?,37+,38-,39+/m1/s1

> <PUBCHEM_IUPAC_INCHIKEY>
MNVOPRXPCYEJHJ-XDSLKQLBSA-N

> <PUBCHEM_XLOGP3_AA>
-0.3

> <PUBCHEM_EXACT_MASS>
831.258578

> <PUBCHEM_MOLECULAR_FORMULA>
C39H45NO19

> <PUBCHEM_MOLECULAR_WEIGHT>
831.8

> <PUBCHEM_OPENEYE_CAN_SMILES>
CC1C2=C(C=NC=C2)C(=O)OCC3(C4C(C(C5(C(C(C(C(C5(C4O)O3)(C)O)OC(=O)C1(C)O)OC(=O)C)OC(=O)C)COC(=O)C6=COC=C6)OC(=O)C)OC(=O)C)C

> <PUBCHEM_OPENEYE_ISO_SMILES>
CC1C2=C(C=NC=C2)C(=O)OC[C@]3([C@@H]4[C@H]([C@H]([C@@]5([C@H]([C@H]([C@@H]([C@]([C@]5([C@@H]4O)O3)(C)O)OC(=O)C1(C)O)OC(=O)C)OC(=O)C)COC(=O)C6=COC=C6)OC(=O)C)OC(=O)C)C

> <PUBCHEM_CACTVS_TPSA>
280

> <PUBCHEM_MONOISOTOPIC_WEIGHT>
831.258578

> <PUBCHEM_TOTAL_CHARGE>
0

> <PUBCHEM_HEAVY_ATOM_COUNT>
59

> <PUBCHEM_ATOM_DEF_STEREO_COUNT>
11

> <PUBCHEM_ATOM_UDEF_STEREO_COUNT>
2

> <PUBCHEM_BOND_DEF_STEREO_COUNT>
0

> <PUBCHEM_BOND_UDEF_STEREO_COUNT>
0

> <PUBCHEM_ISOTOPIC_ATOM_COUNT>
0

> <PUBCHEM_COMPONENT_COUNT>
1

> <PUBCHEM_CACTVS_TAUTO_COUNT>
-1

> <PUBCHEM_COORDINATE_TYPE>
1
5
255

> <PUBCHEM_BONDANNOTATIONS>
21  1  5
42  17  3
19  55  8
19  58  8
24  2  5
20  56  8
20  59  8
22  32  6
23  60  6
27  35  6
26  3  6
30  65  6
25  4  6
47  53  3
49  54  8
49  55  8
28  5  6
50  52  8
50  56  8
52  57  8
54  58  8
57  59  8
29  6  6
31  8  6

$$$$
