184937
  -OEChem-11202008323D

 69 73  0     1  0  0  0  0  0999 V2000
    1.0654   -2.0987    0.1075 O   0  0  0  0  0  0  0  0  0  0  0  0
   -3.9731   -1.3403    0.9306 O   0  0  0  0  0  0  0  0  0  0  0  0
   -4.2859    0.5810    2.1733 O   0  0  0  0  0  0  0  0  0  0  0  0
    6.2959    1.2976    0.8287 O   0  0  0  0  0  0  0  0  0  0  0  0
   -3.4802   -3.4343    0.2280 O   0  0  0  0  0  0  0  0  0  0  0  0
   -4.9807    1.2459   -2.3215 O   0  0  0  0  0  0  0  0  0  0  0  0
    2.0602   -3.6958   -1.2328 O   0  0  0  0  0  0  0  0  0  0  0  0
    0.7056    0.8752    0.5113 C   0  0  1  0  0  0  0  0  0  0  0  0
   -0.0614   -0.0192   -0.5375 C   0  0  1  0  0  0  0  0  0  0  0  0
    2.1454    1.3834    0.0605 C   0  0  1  0  0  0  0  0  0  0  0  0
    2.9908    0.1143   -0.3099 C   0  0  1  0  0  0  0  0  0  0  0  0
    0.8971   -1.1790   -0.9801 C   0  0  1  0  0  0  0  0  0  0  0  0
    2.2979   -0.7136   -1.4113 C   0  0  0  0  0  0  0  0  0  0  0  0
   -2.1039    0.2595    1.1529 C   0  0  1  0  0  0  0  0  0  0  0  0
   -0.1746    1.9796    1.1518 C   0  0  0  0  0  0  0  0  0  0  0  0
   -1.3813   -0.5679    0.0924 C   0  0  0  0  0  0  0  0  0  0  0  0
    4.5192    0.3638   -0.5380 C   0  0  0  0  0  0  0  0  0  0  0  0
   -1.6811    1.7414    1.0824 C   0  0  0  0  0  0  0  0  0  0  0  0
   -0.4905    0.7516   -1.8121 C   0  0  0  0  0  0  0  0  0  0  0  0
    2.0698    2.4340   -1.0716 C   0  0  0  0  0  0  0  0  0  0  0  0
    2.8572    2.0727    1.2171 C   0  0  0  0  0  0  0  0  0  0  0  0
   -3.6683    0.0904    0.9626 C   0  0  1  0  0  0  0  0  0  0  0  0
   -1.7025   -0.2912    2.5579 C   0  0  0  0  0  0  0  0  0  0  0  0
    5.0858    1.2122    0.6119 C   0  0  0  0  0  0  0  0  0  0  0  0
   -1.9262   -1.7440   -0.2712 C   0  0  0  0  0  0  0  0  0  0  0  0
    4.1667    1.9907    1.4744 C   0  0  0  0  0  0  0  0  0  0  0  0
    4.8753    1.0573   -1.8611 C   0  0  0  0  0  0  0  0  0  0  0  0
    5.2752   -0.9886   -0.5042 C   0  0  0  0  0  0  0  0  0  0  0  0
   -4.2694    0.8239   -0.2510 C   0  0  0  0  0  0  0  0  0  0  0  0
   -3.1761   -2.2502    0.3196 C   0  0  0  0  0  0  0  0  0  0  0  0
    1.8804   -3.1599   -0.1476 C   0  0  0  0  0  0  0  0  0  0  0  0
   -4.7714    2.1350   -0.2679 C   0  0  0  0  0  0  0  0  0  0  0  0
   -4.4120    0.3166   -1.5094 C   0  0  0  0  0  0  0  0  0  0  0  0
    2.5469   -3.5928    1.1229 C   0  0  0  0  0  0  0  0  0  0  0  0
   -5.1962    2.3494   -1.5584 C   0  0  0  0  0  0  0  0  0  0  0  0
    0.9224    0.1962    1.3509 H   0  0  0  0  0  0  0  0  0  0  0  0
    2.9650   -0.5158    0.5939 H   0  0  0  0  0  0  0  0  0  0  0  0
    0.4491   -1.7219   -1.8233 H   0  0  0  0  0  0  0  0  0  0  0  0
    2.9277   -1.5580   -1.6919 H   0  0  0  0  0  0  0  0  0  0  0  0
    2.2168   -0.1288   -2.3319 H   0  0  0  0  0  0  0  0  0  0  0  0
    0.1026    2.0660    2.2111 H   0  0  0  0  0  0  0  0  0  0  0  0
    0.0261    2.9657    0.7224 H   0  0  0  0  0  0  0  0  0  0  0  0
   -2.0384    2.1980    0.1548 H   0  0  0  0  0  0  0  0  0  0  0  0
   -2.1641    2.3143    1.8851 H   0  0  0  0  0  0  0  0  0  0  0  0
   -0.9391    1.7227   -1.5921 H   0  0  0  0  0  0  0  0  0  0  0  0
    0.3347    0.9330   -2.5012 H   0  0  0  0  0  0  0  0  0  0  0  0
   -1.2282    0.1803   -2.3896 H   0  0  0  0  0  0  0  0  0  0  0  0
    2.8906    3.1594   -1.0188 H   0  0  0  0  0  0  0  0  0  0  0  0
    1.1545    3.0305   -1.0334 H   0  0  0  0  0  0  0  0  0  0  0  0
    2.1201    1.9925   -2.0681 H   0  0  0  0  0  0  0  0  0  0  0  0
    2.2750    2.7245    1.8628 H   0  0  0  0  0  0  0  0  0  0  0  0
   -2.0782    0.3557    3.3592 H   0  0  0  0  0  0  0  0  0  0  0  0
   -2.1025   -1.2951    2.7377 H   0  0  0  0  0  0  0  0  0  0  0  0
   -0.6203   -0.3630    2.6930 H   0  0  0  0  0  0  0  0  0  0  0  0
   -1.4708   -2.3937   -1.0088 H   0  0  0  0  0  0  0  0  0  0  0  0
    4.6028    2.5368    2.3039 H   0  0  0  0  0  0  0  0  0  0  0  0
    4.4231    0.5540   -2.7208 H   0  0  0  0  0  0  0  0  0  0  0  0
    5.9609    1.0555   -2.0214 H   0  0  0  0  0  0  0  0  0  0  0  0
    4.5797    2.1079   -1.8773 H   0  0  0  0  0  0  0  0  0  0  0  0
    5.0613   -1.5392    0.4187 H   0  0  0  0  0  0  0  0  0  0  0  0
    6.3618   -0.8438   -0.5406 H   0  0  0  0  0  0  0  0  0  0  0  0
    5.0181   -1.6280   -1.3537 H   0  0  0  0  0  0  0  0  0  0  0  0
   -5.2414    0.6563    2.0105 H   0  0  0  0  0  0  0  0  0  0  0  0
   -4.8229    2.8461    0.5440 H   0  0  0  0  0  0  0  0  0  0  0  0
   -4.1826   -0.6270   -1.9820 H   0  0  0  0  0  0  0  0  0  0  0  0
    1.8023   -4.0095    1.8056 H   0  0  0  0  0  0  0  0  0  0  0  0
    3.0610   -2.7480    1.5873 H   0  0  0  0  0  0  0  0  0  0  0  0
    3.2901   -4.3630    0.8971 H   0  0  0  0  0  0  0  0  0  0  0  0
   -5.6488    3.1882   -2.0668 H   0  0  0  0  0  0  0  0  0  0  0  0
  1 12  1  0  0  0  0
  1 31  1  0  0  0  0
  2 22  1  0  0  0  0
  2 30  1  0  0  0  0
  3 22  1  0  0  0  0
  3 63  1  0  0  0  0
  4 24  2  0  0  0  0
  5 30  2  0  0  0  0
  6 33  1  0  0  0  0
  6 35  1  0  0  0  0
  7 31  2  0  0  0  0
  8  9  1  0  0  0  0
  8 10  1  0  0  0  0
  8 15  1  0  0  0  0
  8 36  1  0  0  0  0
  9 12  1  0  0  0  0
  9 16  1  0  0  0  0
  9 19  1  0  0  0  0
 10 11  1  0  0  0  0
 10 20  1  0  0  0  0
 10 21  1  0  0  0  0
 11 13  1  0  0  0  0
 11 17  1  0  0  0  0
 11 37  1  0  0  0  0
 12 13  1  0  0  0  0
 12 38  1  0  0  0  0
 13 39  1  0  0  0  0
 13 40  1  0  0  0  0
 14 16  1  0  0  0  0
 14 18  1  0  0  0  0
 14 22  1  0  0  0  0
 14 23  1  0  0  0  0
 15 18  1  0  0  0  0
 15 41  1  0  0  0  0
 15 42  1  0  0  0  0
 16 25  2  0  0  0  0
 17 24  1  0  0  0  0
 17 27  1  0  0  0  0
 17 28  1  0  0  0  0
 18 43  1  0  0  0  0
 18 44  1  0  0  0  0
 19 45  1  0  0  0  0
 19 46  1  0  0  0  0
 19 47  1  0  0  0  0
 20 48  1  0  0  0  0
 20 49  1  0  0  0  0
 20 50  1  0  0  0  0
 21 26  2  0  0  0  0
 21 51  1  0  0  0  0
 22 29  1  0  0  0  0
 23 52  1  0  0  0  0
 23 53  1  0  0  0  0
 23 54  1  0  0  0  0
 24 26  1  0  0  0  0
 25 30  1  0  0  0  0
 25 55  1  0  0  0  0
 26 56  1  0  0  0  0
 27 57  1  0  0  0  0
 27 58  1  0  0  0  0
 27 59  1  0  0  0  0
 28 60  1  0  0  0  0
 28 61  1  0  0  0  0
 28 62  1  0  0  0  0
 29 32  1  0  0  0  0
 29 33  2  0  0  0  0
 31 34  1  0  0  0  0
 32 35  2  0  0  0  0
 32 64  1  0  0  0  0
 33 65  1  0  0  0  0
 34 66  1  0  0  0  0
 34 67  1  0  0  0  0
 34 68  1  0  0  0  0
 35 69  1  0  0  0  0
M  END
> <PUBCHEM_COMPOUND_CID>
184937

> <PUBCHEM_CONFORMER_RMSD>
0.8

> <PUBCHEM_CONFORMER_DIVERSEORDER>
1

> <PUBCHEM_MMFF94_PARTIAL_CHARGES>
32
1 -0.43
10 0.14
12 0.28
14 0.14
16 -0.28
17 0.06
2 -0.43
21 -0.29
22 0.74
24 0.49
25 -0.14
26 -0.14
29 -0.18
3 -0.68
30 0.71
31 0.66
32 -0.15
33 -0.01
34 0.06
35 -0.01
4 -0.57
5 -0.57
51 0.15
55 0.15
56 0.15
6 -0.28
63 0.4
64 0.15
65 0.15
69 0.15
7 -0.57
9 0.14

> <PUBCHEM_EFFECTIVE_ROTOR_COUNT>
4.4

> <PUBCHEM_PHARMACOPHORE_FEATURES>
12
1 3 acceptor
1 3 donor
1 4 acceptor
1 5 acceptor
1 6 acceptor
1 7 acceptor
3 17 27 28 hydrophobe
5 6 29 32 33 35 rings
6 10 11 17 21 24 26 rings
6 2 14 16 22 25 30 rings
6 8 9 10 11 12 13 rings
6 8 9 14 15 16 18 rings

> <PUBCHEM_HEAVY_ATOM_COUNT>
35

> <PUBCHEM_ATOM_DEF_STEREO_COUNT>
7

> <PUBCHEM_ATOM_UDEF_STEREO_COUNT>
0

> <PUBCHEM_BOND_DEF_STEREO_COUNT>
0

> <PUBCHEM_BOND_UDEF_STEREO_COUNT>
0

> <PUBCHEM_ISOTOPIC_ATOM_COUNT>
0

> <PUBCHEM_COMPONENT_COUNT>
1

> <PUBCHEM_CACTVS_TAUTO_COUNT>
1

> <PUBCHEM_CONFORMER_ID>
0002D26900000001

> <PUBCHEM_MMFF94_ENERGY>
133.748

> <PUBCHEM_FEATURE_SELFOVERLAP>
60.944

> <PUBCHEM_SHAPE_FINGERPRINT>
105312 117 18334286557650981021
10675989 125 17977097960284414729
11007060 377 18122064475613973528
11135926 11 18340780247349035238
11513181 2 17271452292203231806
11578080 2 18041849402328655047
12422481 6 17894904105935992294
12788726 201 17630329632293554729
13140716 1 18201450223886853760
13224815 77 17346887775093118137
13583140 156 18272365416801105733
13944108 23 16746193477756798693
14294032 229 17168412785274864445
14466204 15 18336261327504832488
14725015 67 17977941620257259779
14790565 3 18117287063057715788
14856354 85 15502384417535217737
15788980 27 17894633690157287656
16112460 7 17839469877880595913
17349148 13 17489312992042820385
17980427 23 16950285152093741462
20197701 30 18271521005003827986
20511986 3 17417515943727457865
21033648 144 18272652342017546621
21033648 29 18187650159353307093
21279426 13 18413393112049681190
22393880 68 18413673525668407214
23559900 14 18411420579404032010
23569914 152 16694149223772739061
32027 91 18269560438449068886
3298306 158 18410290324247565322
392239 28 18057616549527161322
4015057 19 17632007662830701689
4098825 35 18341887443296036437
460360 51 18118413838567927289
469060 322 18116444828618796619
508706 21 18334293214644450951
5104073 3 18059867194078851722
5265222 85 18119538876156943484
59755656 215 18337104571292603908
6086070 43 18270666641197470208
6669772 16 18114736028635345699
9849439 229 16156220956129908877

> <PUBCHEM_SHAPE_MULTIPOLES>
679.2
11.74
3.55
1.9
1.09
3.33
-0.08
-4.94
1.67
0.7
-0.08
-0.94
-0.59
1.56

> <PUBCHEM_SHAPE_SELFOVERLAP>
1479.318

> <PUBCHEM_SHAPE_VOLUME>
363.7

> <PUBCHEM_COORDINATE_TYPE>
2
5
10

$$$$
