49863985
  -OEChem-11202008133D

 68 73  0     1  0  0  0  0  0999 V2000
    1.8151   -1.0465    2.1924 O   0  0  0  0  0  0  0  0  0  0  0  0
   -0.7689   -1.8039   -0.6219 O   0  0  0  0  0  0  0  0  0  0  0  0
    4.3475   -2.1377    0.2852 O   0  0  0  0  0  0  0  0  0  0  0  0
    6.2271    2.0285   -1.1373 O   0  0  0  0  0  0  0  0  0  0  0  0
   -5.9038    1.5123   -1.7842 O   0  0  0  0  0  0  0  0  0  0  0  0
   -1.2337   -4.0365   -0.2530 O   0  0  0  0  0  0  0  0  0  0  0  0
    1.2225   -0.4761    0.9796 C   0  0  1  0  0  0  0  0  0  0  0  0
   -0.3004   -0.2772    1.2429 C   0  0  1  0  0  0  0  0  0  0  0  0
    2.0518    0.6199    0.2888 C   0  0  2  0  0  0  0  0  0  0  0  0
    2.1054   -1.7172    0.9919 C   0  0  1  0  0  0  0  0  0  0  0  0
   -0.7929    1.0145    0.4869 C   0  0  1  0  0  0  0  0  0  0  0  0
   -2.3625    1.2753    0.4991 C   0  0  1  0  0  0  0  0  0  0  0  0
    3.5556    0.1987    0.5993 C   0  0  1  0  0  0  0  0  0  0  0  0
    1.6299    1.9565    0.9078 C   0  0  0  0  0  0  0  0  0  0  0  0
   -1.0992   -1.5061    0.7410 C   0  0  1  0  0  0  0  0  0  0  0  0
    0.1149    2.2471    0.7811 C   0  0  0  0  0  0  0  0  0  0  0  0
   -3.0421   -0.0377   -0.0465 C   0  0  1  0  0  0  0  0  0  0  0  0
    3.4715   -1.3360    0.5563 C   0  0  0  0  0  0  0  0  0  0  0  0
   -2.6232   -1.2851    0.7677 C   0  0  0  0  0  0  0  0  0  0  0  0
   -0.5295   -0.1362    2.7778 C   0  0  0  0  0  0  0  0  0  0  0  0
    1.8862    0.6110   -1.2562 C   0  0  0  0  0  0  0  0  0  0  0  0
   -4.5740    0.0763   -0.3464 C   0  0  0  0  0  0  0  0  0  0  0  0
   -2.8922    1.7439    1.8704 C   0  0  0  0  0  0  0  0  0  0  0  0
   -2.7290    2.3929   -0.4700 C   0  0  0  0  0  0  0  0  0  0  0  0
    4.5997    0.7250   -0.2981 C   0  0  0  0  0  0  0  0  0  0  0  0
   -4.8458    1.3428   -1.1756 C   0  0  0  0  0  0  0  0  0  0  0  0
   -3.8311    2.4221   -1.2272 C   0  0  0  0  0  0  0  0  0  0  0  0
   -5.4780    0.1157    0.8940 C   0  0  0  0  0  0  0  0  0  0  0  0
   -5.0255   -1.1260   -1.2132 C   0  0  0  0  0  0  0  0  0  0  0  0
    5.0203    0.1738   -1.5320 C   0  0  0  0  0  0  0  0  0  0  0  0
    5.3639    1.8518   -0.1027 C   0  0  0  0  0  0  0  0  0  0  0  0
   -0.8830   -3.1143   -0.9766 C   0  0  0  0  0  0  0  0  0  0  0  0
    6.0117    1.0032   -2.0026 C   0  0  0  0  0  0  0  0  0  0  0  0
   -0.5082   -3.2750   -2.4188 C   0  0  0  0  0  0  0  0  0  0  0  0
    1.6979   -2.6931    0.7849 H   0  0  0  0  0  0  0  0  0  0  0  0
   -0.6289    0.8011   -0.5702 H   0  0  0  0  0  0  0  0  0  0  0  0
    3.8052    0.4619    1.6373 H   0  0  0  0  0  0  0  0  0  0  0  0
    1.8814    1.9524    1.9769 H   0  0  0  0  0  0  0  0  0  0  0  0
    2.1989    2.7854    0.4697 H   0  0  0  0  0  0  0  0  0  0  0  0
   -0.8474   -2.3635    1.3795 H   0  0  0  0  0  0  0  0  0  0  0  0
   -0.0001    2.9702   -0.0348 H   0  0  0  0  0  0  0  0  0  0  0  0
   -0.2064    2.7671    1.6887 H   0  0  0  0  0  0  0  0  0  0  0  0
   -2.5993   -0.1912   -1.0458 H   0  0  0  0  0  0  0  0  0  0  0  0
   -3.1066   -2.1738    0.3517 H   0  0  0  0  0  0  0  0  0  0  0  0
   -2.9750   -1.2089    1.8004 H   0  0  0  0  0  0  0  0  0  0  0  0
    0.0186    0.7179    3.1891 H   0  0  0  0  0  0  0  0  0  0  0  0
   -1.5728   -0.0295    3.0591 H   0  0  0  0  0  0  0  0  0  0  0  0
   -0.1971   -1.0302    3.3195 H   0  0  0  0  0  0  0  0  0  0  0  0
    0.8796    0.8021   -1.6160 H   0  0  0  0  0  0  0  0  0  0  0  0
    2.4949    1.3925   -1.7238 H   0  0  0  0  0  0  0  0  0  0  0  0
    2.1626   -0.3589   -1.6848 H   0  0  0  0  0  0  0  0  0  0  0  0
   -2.1345    2.2757    2.4519 H   0  0  0  0  0  0  0  0  0  0  0  0
   -3.7313    2.4447    1.7778 H   0  0  0  0  0  0  0  0  0  0  0  0
   -3.2624    0.9195    2.4833 H   0  0  0  0  0  0  0  0  0  0  0  0
   -2.0826    3.2644   -0.5182 H   0  0  0  0  0  0  0  0  0  0  0  0
   -4.0381    3.2711   -1.8698 H   0  0  0  0  0  0  0  0  0  0  0  0
   -5.2532   -0.6987    1.5890 H   0  0  0  0  0  0  0  0  0  0  0  0
   -6.5331    0.0148    0.6097 H   0  0  0  0  0  0  0  0  0  0  0  0
   -5.4110    1.0633    1.4322 H   0  0  0  0  0  0  0  0  0  0  0  0
   -4.9865   -2.0690   -0.6596 H   0  0  0  0  0  0  0  0  0  0  0  0
   -4.4008   -1.2263   -2.1083 H   0  0  0  0  0  0  0  0  0  0  0  0
   -6.0596   -1.0095   -1.5593 H   0  0  0  0  0  0  0  0  0  0  0  0
    4.6559   -0.7116   -2.0330 H   0  0  0  0  0  0  0  0  0  0  0  0
    5.4137    2.5969    0.6782 H   0  0  0  0  0  0  0  0  0  0  0  0
    6.6283    1.0026   -2.8894 H   0  0  0  0  0  0  0  0  0  0  0  0
   -1.1888   -2.6926   -3.0449 H   0  0  0  0  0  0  0  0  0  0  0  0
   -0.5901   -4.3288   -2.6999 H   0  0  0  0  0  0  0  0  0  0  0  0
    0.5254   -2.9535   -2.5704 H   0  0  0  0  0  0  0  0  0  0  0  0
  1  7  1  0  0  0  0
  1 10  1  0  0  0  0
  2 15  1  0  0  0  0
  2 32  1  0  0  0  0
  3 18  2  0  0  0  0
  4 31  1  0  0  0  0
  4 33  1  0  0  0  0
  5 26  2  0  0  0  0
  6 32  2  0  0  0  0
  7  8  1  0  0  0  0
  7  9  1  0  0  0  0
  7 10  1  0  0  0  0
  8 11  1  0  0  0  0
  8 15  1  0  0  0  0
  8 20  1  0  0  0  0
  9 13  1  0  0  0  0
  9 14  1  0  0  0  0
  9 21  1  0  0  0  0
 10 18  1  0  0  0  0
 10 35  1  0  0  0  0
 11 12  1  0  0  0  0
 11 16  1  0  0  0  0
 11 36  1  0  0  0  0
 12 17  1  0  0  0  0
 12 23  1  0  0  0  0
 12 24  1  0  0  0  0
 13 18  1  0  0  0  0
 13 25  1  0  0  0  0
 13 37  1  0  0  0  0
 14 16  1  0  0  0  0
 14 38  1  0  0  0  0
 14 39  1  0  0  0  0
 15 19  1  0  0  0  0
 15 40  1  0  0  0  0
 16 41  1  0  0  0  0
 16 42  1  0  0  0  0
 17 19  1  0  0  0  0
 17 22  1  0  0  0  0
 17 43  1  0  0  0  0
 19 44  1  0  0  0  0
 19 45  1  0  0  0  0
 20 46  1  0  0  0  0
 20 47  1  0  0  0  0
 20 48  1  0  0  0  0
 21 49  1  0  0  0  0
 21 50  1  0  0  0  0
 21 51  1  0  0  0  0
 22 26  1  0  0  0  0
 22 28  1  0  0  0  0
 22 29  1  0  0  0  0
 23 52  1  0  0  0  0
 23 53  1  0  0  0  0
 23 54  1  0  0  0  0
 24 27  2  0  0  0  0
 24 55  1  0  0  0  0
 25 30  1  0  0  0  0
 25 31  2  0  0  0  0
 26 27  1  0  0  0  0
 27 56  1  0  0  0  0
 28 57  1  0  0  0  0
 28 58  1  0  0  0  0
 28 59  1  0  0  0  0
 29 60  1  0  0  0  0
 29 61  1  0  0  0  0
 29 62  1  0  0  0  0
 30 33  2  0  0  0  0
 30 63  1  0  0  0  0
 31 64  1  0  0  0  0
 32 34  1  0  0  0  0
 33 65  1  0  0  0  0
 34 66  1  0  0  0  0
 34 67  1  0  0  0  0
 34 68  1  0  0  0  0
M  END
> <PUBCHEM_COMPOUND_CID>
49863985

> <PUBCHEM_CONFORMER_RMSD>
0.8

> <PUBCHEM_CONFORMER_DIVERSEORDER>
1

> <PUBCHEM_MMFF94_PARTIAL_CHARGES>
30
1 -0.3
10 0.05
12 0.14
13 0.24
15 0.28
18 0.51
2 -0.43
22 0.06
24 -0.29
25 -0.18
26 0.49
27 -0.14
3 -0.57
30 -0.15
31 -0.01
32 0.66
33 -0.01
34 0.06
35 0.1
4 -0.28
5 -0.57
55 0.15
56 0.15
6 -0.57
63 0.15
64 0.15
65 0.15
7 -0.04
8 0.09
9 0.09

> <PUBCHEM_EFFECTIVE_ROTOR_COUNT>
4.4

> <PUBCHEM_PHARMACOPHORE_FEATURES>
11
1 1 acceptor
1 3 acceptor
1 4 acceptor
1 5 acceptor
1 6 acceptor
3 22 28 29 hydrophobe
5 4 25 30 31 33 rings
6 1 7 9 10 13 18 rings
6 12 17 22 24 26 27 rings
6 7 8 9 11 14 16 rings
6 8 11 12 15 17 19 rings

> <PUBCHEM_HEAVY_ATOM_COUNT>
34

> <PUBCHEM_ATOM_DEF_STEREO_COUNT>
9

> <PUBCHEM_ATOM_UDEF_STEREO_COUNT>
0

> <PUBCHEM_BOND_DEF_STEREO_COUNT>
0

> <PUBCHEM_BOND_UDEF_STEREO_COUNT>
0

> <PUBCHEM_ISOTOPIC_ATOM_COUNT>
0

> <PUBCHEM_COMPONENT_COUNT>
1

> <PUBCHEM_CACTVS_TAUTO_COUNT>
3

> <PUBCHEM_CONFORMER_ID>
02F8DD3100000001

> <PUBCHEM_MMFF94_ENERGY>
135.9443

> <PUBCHEM_FEATURE_SELFOVERLAP>
55.913

> <PUBCHEM_SHAPE_FINGERPRINT>
10906281 52 18338239237818476489
11285246 1 17056083545242464335
11488393 25 17985268469914170175
11578080 2 17271995755789570714
11961588 58 18260544541447371980
12633257 1 8862938403118486593
12788726 201 17988929924653175504
13149001 5 17488164071401201203
133893 2 17768825169063480899
13690498 29 17982736569186229214
13782708 43 15051728685785577557
13911987 19 18342457028351307941
14251757 5 18270963565092631550
14790565 3 18341057298209101833
15131766 46 15720814613343503148
15575132 122 18334293154594134269
17349148 13 17203616973366528672
17492 54 18409728452283599009
17980427 26 17096068200345707730
1813 80 15338825465406575097
18603816 31 16200161984486544910
18608769 82 17968950823924889403
19319366 153 18186234035442180226
19958102 18 18273222980194348358
20511986 3 18187633731198137648
20775438 99 16552795309300167501
21033650 10 16845025498253026944
21344244 181 16845282878373757343
22393880 68 18269555104114920096
23559900 14 18052525574272093554
27425 322 17534625907187594337
2838139 119 18114176445577613980
3004659 81 18188485766799671322
3493558 16 16589172565099654357
4058900 60 18337115540797268411
437795 70 17558813217099134847
44249763 50 18198334264359602996
44802255 64 18338529641715899406
70251023 43 16978420765343281671
7288768 16 17022904588015274050

> <PUBCHEM_SHAPE_MULTIPOLES>
664.49
12.29
3.3
2.02
5.75
2.48
-0.09
-6.14
6.68
-0.94
1.14
-0.06
0.19
-0.65

> <PUBCHEM_SHAPE_SELFOVERLAP>
1458.351

> <PUBCHEM_SHAPE_VOLUME>
358.9

> <PUBCHEM_COORDINATE_TYPE>
2
5
10

$$$$
