185704
  -OEChem-11202008293D

 67 72  0     1  0  0  0  0  0999 V2000
   -2.8550    2.6081   -0.4914 O   0  0  0  0  0  0  0  0  0  0  0  0
   -0.1346    2.0917    0.0827 O   0  0  0  0  0  0  0  0  0  0  0  0
   -1.8611   -1.7840    2.0621 O   0  0  0  0  0  0  0  0  0  0  0  0
   -3.8130    0.2888    2.7368 O   0  0  0  0  0  0  0  0  0  0  0  0
    1.8931   -1.9317    0.5917 O   0  0  0  0  0  0  0  0  0  0  0  0
    2.3061   -2.5999   -1.5446 O   0  0  0  0  0  0  0  0  0  0  0  0
    4.9068   -0.2146    2.5054 O   0  0  0  0  0  0  0  0  0  0  0  0
   -2.6142    0.3551    0.0090 C   0  0  2  0  0  0  0  0  0  0  0  0
   -2.2025   -1.0866   -0.3067 C   0  0  1  0  0  0  0  0  0  0  0  0
   -0.0328    0.1165   -1.3536 C   0  0  1  0  0  0  0  0  0  0  0  0
   -0.6169   -1.0406   -0.4284 C   0  0  2  0  0  0  0  0  0  0  0  0
   -4.0649    0.6913    0.3246 C   0  0  1  0  0  0  0  0  0  0  0  0
   -2.2241    1.4113   -0.9888 C   0  0  2  0  0  0  0  0  0  0  0  0
   -0.7115    1.5113   -1.1143 C   0  0  1  0  0  0  0  0  0  0  0  0
   -2.7015   -1.9448    0.9169 C   0  0  2  0  0  0  0  0  0  0  0  0
   -4.4890   -0.1370    1.5548 C   0  0  1  0  0  0  0  0  0  0  0  0
    1.3156    0.5332   -0.8463 C   0  0  0  0  0  0  0  0  0  0  0  0
   -3.8689    2.2143    0.4837 C   0  0  0  0  0  0  0  0  0  0  0  0
   -4.1667   -1.6410    1.3445 C   0  0  0  0  0  0  0  0  0  0  0  0
    1.1169    1.4551    0.3077 C   0  0  1  0  0  0  0  0  0  0  0  0
   -2.8495   -1.6572   -1.5855 C   0  0  0  0  0  0  0  0  0  0  0  0
    0.0211   -2.4109   -0.7157 C   0  0  0  0  0  0  0  0  0  0  0  0
   -0.0640   -0.2044   -2.8543 C   0  0  0  0  0  0  0  0  0  0  0  0
   -5.0978    0.4826   -0.8054 C   0  0  0  0  0  0  0  0  0  0  0  0
    2.5984    0.4697   -1.2284 C   0  0  0  0  0  0  0  0  0  0  0  0
    2.3435    2.3480    0.2227 C   0  0  0  0  0  0  0  0  0  0  0  0
    3.4288    1.4501   -0.4175 C   0  0  1  0  0  0  0  0  0  0  0  0
    1.5180   -2.3399   -0.6478 C   0  0  0  0  0  0  0  0  0  0  0  0
    3.2248   -0.2900   -2.3430 C   0  0  0  0  0  0  0  0  0  0  0  0
    4.2619    0.7602    0.5923 C   0  0  0  0  0  0  0  0  0  0  0  0
    5.6015    0.3411    0.4413 C   0  0  0  0  0  0  0  0  0  0  0  0
    3.8816    0.4018    1.8609 C   0  0  0  0  0  0  0  0  0  0  0  0
    5.9496   -0.2475    1.6347 C   0  0  0  0  0  0  0  0  0  0  0  0
   -2.0587    0.6122    0.9286 H   0  0  0  0  0  0  0  0  0  0  0  0
   -0.2856   -0.7865    0.5879 H   0  0  0  0  0  0  0  0  0  0  0  0
   -2.6428    1.2174   -1.9810 H   0  0  0  0  0  0  0  0  0  0  0  0
   -0.4707    2.2192   -1.9200 H   0  0  0  0  0  0  0  0  0  0  0  0
   -2.6385   -3.0082    0.6574 H   0  0  0  0  0  0  0  0  0  0  0  0
   -5.5626   -0.0263    1.7476 H   0  0  0  0  0  0  0  0  0  0  0  0
   -4.7763    2.7982    0.3015 H   0  0  0  0  0  0  0  0  0  0  0  0
   -3.4776    2.4953    1.4666 H   0  0  0  0  0  0  0  0  0  0  0  0
   -4.3592   -2.1647    2.2901 H   0  0  0  0  0  0  0  0  0  0  0  0
   -4.8542   -2.0605    0.6033 H   0  0  0  0  0  0  0  0  0  0  0  0
    1.0614    0.9178    1.2588 H   0  0  0  0  0  0  0  0  0  0  0  0
   -2.3484   -2.5681   -1.9234 H   0  0  0  0  0  0  0  0  0  0  0  0
   -3.8868   -1.9580   -1.4291 H   0  0  0  0  0  0  0  0  0  0  0  0
   -2.8487   -0.9509   -2.4158 H   0  0  0  0  0  0  0  0  0  0  0  0
   -0.3089   -3.1674    0.0046 H   0  0  0  0  0  0  0  0  0  0  0  0
   -0.2437   -2.7888   -1.7070 H   0  0  0  0  0  0  0  0  0  0  0  0
    0.3644   -1.1797   -3.0939 H   0  0  0  0  0  0  0  0  0  0  0  0
   -1.0805   -0.1918   -3.2523 H   0  0  0  0  0  0  0  0  0  0  0  0
    0.4941    0.5433   -3.4313 H   0  0  0  0  0  0  0  0  0  0  0  0
   -5.3372   -0.5658   -0.9840 H   0  0  0  0  0  0  0  0  0  0  0  0
   -6.0466    0.9627   -0.5343 H   0  0  0  0  0  0  0  0  0  0  0  0
   -4.7856    0.9197   -1.7579 H   0  0  0  0  0  0  0  0  0  0  0  0
    2.6188    2.7709    1.1951 H   0  0  0  0  0  0  0  0  0  0  0  0
    2.1331    3.2043   -0.4335 H   0  0  0  0  0  0  0  0  0  0  0  0
    4.0560    2.0674   -1.0721 H   0  0  0  0  0  0  0  0  0  0  0  0
   -2.0059   -0.8961    2.4283 H   0  0  0  0  0  0  0  0  0  0  0  0
   -4.1945    1.1430    3.0008 H   0  0  0  0  0  0  0  0  0  0  0  0
    2.5195   -0.8090   -2.9896 H   0  0  0  0  0  0  0  0  0  0  0  0
    3.9831   -0.9860   -1.9731 H   0  0  0  0  0  0  0  0  0  0  0  0
    3.7483    0.4174   -2.9982 H   0  0  0  0  0  0  0  0  0  0  0  0
    6.2384    0.4501   -0.4249 H   0  0  0  0  0  0  0  0  0  0  0  0
    2.8691   -1.9085    0.6831 H   0  0  0  0  0  0  0  0  0  0  0  0
    2.9773    0.5005    2.4425 H   0  0  0  0  0  0  0  0  0  0  0  0
    6.8517   -0.7133    2.0034 H   0  0  0  0  0  0  0  0  0  0  0  0
  1 13  1  0  0  0  0
  1 18  1  0  0  0  0
  2 14  1  0  0  0  0
  2 20  1  0  0  0  0
  3 15  1  0  0  0  0
  3 59  1  0  0  0  0
  4 16  1  0  0  0  0
  4 60  1  0  0  0  0
  5 28  1  0  0  0  0
  5 65  1  0  0  0  0
  6 28  2  0  0  0  0
  7 32  1  0  0  0  0
  7 33  1  0  0  0  0
  8  9  1  0  0  0  0
  8 12  1  0  0  0  0
  8 13  1  0  0  0  0
  8 34  1  0  0  0  0
  9 11  1  0  0  0  0
  9 15  1  0  0  0  0
  9 21  1  0  0  0  0
 10 11  1  0  0  0  0
 10 14  1  0  0  0  0
 10 17  1  0  0  0  0
 10 23  1  0  0  0  0
 11 22  1  0  0  0  0
 11 35  1  0  0  0  0
 12 16  1  0  0  0  0
 12 18  1  0  0  0  0
 12 24  1  0  0  0  0
 13 14  1  0  0  0  0
 13 36  1  0  0  0  0
 14 37  1  0  0  0  0
 15 19  1  0  0  0  0
 15 38  1  0  0  0  0
 16 19  1  0  0  0  0
 16 39  1  0  0  0  0
 17 20  1  0  0  0  0
 17 25  2  0  0  0  0
 18 40  1  0  0  0  0
 18 41  1  0  0  0  0
 19 42  1  0  0  0  0
 19 43  1  0  0  0  0
 20 26  1  0  0  0  0
 20 44  1  0  0  0  0
 21 45  1  0  0  0  0
 21 46  1  0  0  0  0
 21 47  1  0  0  0  0
 22 28  1  0  0  0  0
 22 48  1  0  0  0  0
 22 49  1  0  0  0  0
 23 50  1  0  0  0  0
 23 51  1  0  0  0  0
 23 52  1  0  0  0  0
 24 53  1  0  0  0  0
 24 54  1  0  0  0  0
 24 55  1  0  0  0  0
 25 27  1  0  0  0  0
 25 29  1  0  0  0  0
 26 27  1  0  0  0  0
 26 56  1  0  0  0  0
 26 57  1  0  0  0  0
 27 30  1  0  0  0  0
 27 58  1  0  0  0  0
 29 61  1  0  0  0  0
 29 62  1  0  0  0  0
 29 63  1  0  0  0  0
 30 31  1  0  0  0  0
 30 32  2  0  0  0  0
 31 33  2  0  0  0  0
 31 64  1  0  0  0  0
 32 66  1  0  0  0  0
 33 67  1  0  0  0  0
M  END
> <PUBCHEM_COMPOUND_CID>
185704

> <PUBCHEM_CONFORMER_RMSD>
0.8

> <PUBCHEM_CONFORMER_DIVERSEORDER>
1
2

> <PUBCHEM_MMFF94_PARTIAL_CHARGES>
30
1 -0.56
10 0.14
13 0.28
14 0.28
15 0.28
16 0.28
17 -0.28
18 0.28
2 -0.56
20 0.42
22 0.06
25 -0.28
27 0.32
28 0.66
29 0.14
3 -0.68
30 -0.18
31 -0.15
32 -0.01
33 -0.01
4 -0.68
5 -0.65
59 0.4
6 -0.57
60 0.4
64 0.15
65 0.5
66 0.15
67 0.15
7 -0.28

> <PUBCHEM_EFFECTIVE_ROTOR_COUNT>
4.8

> <PUBCHEM_PHARMACOPHORE_FEATURES>
16
1 1 acceptor
1 2 acceptor
1 3 acceptor
1 3 donor
1 4 acceptor
1 4 donor
1 5 acceptor
1 6 acceptor
1 7 acceptor
3 5 6 28 anion
5 1 8 12 13 18 rings
5 17 20 25 26 27 rings
5 2 10 14 17 20 rings
5 7 30 31 32 33 rings
6 8 9 10 11 13 14 rings
6 8 9 12 15 16 19 rings

> <PUBCHEM_HEAVY_ATOM_COUNT>
33

> <PUBCHEM_ATOM_DEF_STEREO_COUNT>
11

> <PUBCHEM_ATOM_UDEF_STEREO_COUNT>
0

> <PUBCHEM_BOND_DEF_STEREO_COUNT>
0

> <PUBCHEM_BOND_UDEF_STEREO_COUNT>
0

> <PUBCHEM_ISOTOPIC_ATOM_COUNT>
0

> <PUBCHEM_COMPONENT_COUNT>
1

> <PUBCHEM_CACTVS_TAUTO_COUNT>
1

> <PUBCHEM_CONFORMER_ID>
0002D56800000001

> <PUBCHEM_MMFF94_ENERGY>
146.8695

> <PUBCHEM_FEATURE_SELFOVERLAP>
81.972

> <PUBCHEM_SHAPE_FINGERPRINT>
10675989 125 16893401591377040764
10863032 1 18337404746720152919
11112241 14 17203028769079182440
11115154 58 13479678924419342711
11578080 2 17917433073239983771
11961588 58 12463562985502740786
12422481 6 18334854970570551202
12633257 1 18341897440982706952
13140716 1 18194689387207364781
13224815 77 18041002859821383679
13544653 18 14129053729534165118
13583140 156 17988634224749593562
13726171 33 18045816547862568852
14081887 123 18409740564370649681
14223421 5 18337968830492134423
14466204 15 18272365378136162672
14955137 171 18334010563305701856
17349148 13 18114182003397086063
1813 80 16370730296781579934
21033648 29 17989218022690878817
22182313 1 18340489941813835606
23559900 14 18119261570712795254
2838139 119 14908177573603412082
392239 28 18410299141883905201
4093350 32 16916510238137712717
4340502 62 18202842145356698093
460360 51 18041845004213584507
469060 322 18129371773730491815
474 4 15554158281314873480
508706 21 18408326562036203687
5104073 3 18268158561159915465
5265222 85 18269280226804114620
56638632 33 15943153095277204811
7226269 152 17775283881027710624
7237137 82 10375866394322110369
9862522 239 18341319046258025269
9981440 41 18341610387465893171

> <PUBCHEM_SHAPE_MULTIPOLES>
638.04
10.59
2.59
2.26
5.66
0.4
-0.26
-1.54
-6.09
-0.88
0.29
0.53
0.55
0.64

> <PUBCHEM_SHAPE_SELFOVERLAP>
1418.844

> <PUBCHEM_SHAPE_VOLUME>
340.9

> <PUBCHEM_COORDINATE_TYPE>
2
5
10

$$$$
