52952216
  -OEChem-11202008273D

 70 74  0     1  0  0  0  0  0999 V2000
    0.3915   -1.7217    0.7928 O   0  0  0  0  0  0  0  0  0  0  0  0
    3.0919   -2.0363    0.2782 O   0  0  0  0  0  0  0  0  0  0  0  0
    4.4350   -0.2574    1.9281 O   0  0  0  0  0  0  0  0  0  0  0  0
    1.0465    3.4630    1.1543 O   0  0  0  0  0  0  0  0  0  0  0  0
   -2.7099    2.6250   -1.7918 O   0  0  0  0  0  0  0  0  0  0  0  0
   -2.3974    1.8046    0.3420 O   0  0  0  0  0  0  0  0  0  0  0  0
   -5.2050   -0.0749    2.3446 O   0  0  0  0  0  0  0  0  0  0  0  0
    3.4583   -3.0179   -1.7806 O   0  0  0  0  0  0  0  0  0  0  0  0
    0.0510   -0.2116   -1.0766 C   0  0  1  0  0  0  0  0  0  0  0  0
    0.3217    1.1949   -0.4145 C   0  0  1  0  0  0  0  0  0  0  0  0
    1.8464    1.5681   -0.1957 C   0  0  1  0  0  0  0  0  0  0  0  0
    0.9440   -1.3333   -0.4933 C   0  0  1  0  0  0  0  0  0  0  0  0
    2.5959    0.3488    0.4585 C   0  0  1  0  0  0  0  0  0  0  0  0
    2.4133   -0.9501   -0.3517 C   0  0  1  0  0  0  0  0  0  0  0  0
   -1.2380   -0.7762   -0.5564 C   0  0  0  0  0  0  0  0  0  0  0  0
   -0.9809   -1.3494    0.7949 C   0  0  1  0  0  0  0  0  0  0  0  0
    4.0839    0.6417    0.8586 C   0  0  1  0  0  0  0  0  0  0  0  0
    0.1747   -0.2325   -2.6085 C   0  0  0  0  0  0  0  0  0  0  0  0
   -0.5161    2.2862   -1.1224 C   0  0  0  0  0  0  0  0  0  0  0  0
   -1.9843   -2.4887    0.8541 C   0  0  0  0  0  0  0  0  0  0  0  0
   -2.4622   -1.0798   -1.0094 C   0  0  0  0  0  0  0  0  0  0  0  0
    2.5059    2.0839   -1.4890 C   0  0  0  0  0  0  0  0  0  0  0  0
    1.9701    2.7126    0.8453 C   0  0  0  0  0  0  0  0  0  0  0  0
   -3.1604   -2.0059   -0.0287 C   0  0  2  0  0  0  0  0  0  0  0  0
    4.2440    2.0197    1.4460 C   0  0  0  0  0  0  0  0  0  0  0  0
    3.2927    2.9569    1.4744 C   0  0  0  0  0  0  0  0  0  0  0  0
    5.1292    0.4200   -0.2435 C   0  0  0  0  0  0  0  0  0  0  0  0
   -3.1088   -0.7505   -2.3076 C   0  0  0  0  0  0  0  0  0  0  0  0
   -1.9619    2.1948   -0.7325 C   0  0  0  0  0  0  0  0  0  0  0  0
   -4.2025   -1.2994    0.7486 C   0  0  0  0  0  0  0  0  0  0  0  0
    3.5643   -3.0031   -0.5617 C   0  0  0  0  0  0  0  0  0  0  0  0
   -5.5821   -1.2140    0.4441 C   0  0  0  0  0  0  0  0  0  0  0  0
   -4.0239   -0.5904    1.9137 C   0  0  0  0  0  0  0  0  0  0  0  0
    4.2486   -4.0729    0.2343 C   0  0  0  0  0  0  0  0  0  0  0  0
   -6.1481   -0.4590    1.4448 C   0  0  0  0  0  0  0  0  0  0  0  0
   -4.1271    2.6049   -1.5937 C   0  0  0  0  0  0  0  0  0  0  0  0
   -0.0611    1.1411    0.6156 H   0  0  0  0  0  0  0  0  0  0  0  0
    0.8761   -2.2428   -1.1083 H   0  0  0  0  0  0  0  0  0  0  0  0
    2.0923    0.1603    1.4228 H   0  0  0  0  0  0  0  0  0  0  0  0
    2.8354   -0.7808   -1.3490 H   0  0  0  0  0  0  0  0  0  0  0  0
   -1.1349   -0.6162    1.5914 H   0  0  0  0  0  0  0  0  0  0  0  0
   -0.5097    0.4494   -3.1148 H   0  0  0  0  0  0  0  0  0  0  0  0
   -0.0469   -1.2316   -3.0054 H   0  0  0  0  0  0  0  0  0  0  0  0
    1.1853    0.0112   -2.9406 H   0  0  0  0  0  0  0  0  0  0  0  0
   -0.2010    3.2916   -0.8286 H   0  0  0  0  0  0  0  0  0  0  0  0
   -0.4038    2.2559   -2.2079 H   0  0  0  0  0  0  0  0  0  0  0  0
   -2.2643   -2.7433    1.8821 H   0  0  0  0  0  0  0  0  0  0  0  0
   -1.5407   -3.3976    0.4235 H   0  0  0  0  0  0  0  0  0  0  0  0
    2.7141    1.2843   -2.2012 H   0  0  0  0  0  0  0  0  0  0  0  0
    3.4509    2.6022   -1.2985 H   0  0  0  0  0  0  0  0  0  0  0  0
    1.8799    2.8247   -1.9961 H   0  0  0  0  0  0  0  0  0  0  0  0
   -3.5914   -2.8709   -0.5472 H   0  0  0  0  0  0  0  0  0  0  0  0
    5.1991    2.2563    1.9113 H   0  0  0  0  0  0  0  0  0  0  0  0
    3.4569    3.9127    1.9583 H   0  0  0  0  0  0  0  0  0  0  0  0
    4.9450    1.0152   -1.1390 H   0  0  0  0  0  0  0  0  0  0  0  0
    6.1348    0.6745    0.1157 H   0  0  0  0  0  0  0  0  0  0  0  0
    5.1891   -0.6319   -0.5381 H   0  0  0  0  0  0  0  0  0  0  0  0
   -3.1501   -1.6406   -2.9432 H   0  0  0  0  0  0  0  0  0  0  0  0
   -2.5859    0.0340   -2.8548 H   0  0  0  0  0  0  0  0  0  0  0  0
   -4.1334   -0.4011   -2.1521 H   0  0  0  0  0  0  0  0  0  0  0  0
    5.3706   -0.1193    2.1556 H   0  0  0  0  0  0  0  0  0  0  0  0
   -6.1022   -1.6464   -0.3988 H   0  0  0  0  0  0  0  0  0  0  0  0
   -3.1772   -0.3631    2.5438 H   0  0  0  0  0  0  0  0  0  0  0  0
    3.5361   -4.5360    0.9213 H   0  0  0  0  0  0  0  0  0  0  0  0
    4.6302   -4.8417   -0.4437 H   0  0  0  0  0  0  0  0  0  0  0  0
    5.0906   -3.6437    0.7834 H   0  0  0  0  0  0  0  0  0  0  0  0
   -7.1540   -0.1229    1.6499 H   0  0  0  0  0  0  0  0  0  0  0  0
   -4.4522    1.7255   -1.0303 H   0  0  0  0  0  0  0  0  0  0  0  0
   -4.4308    3.5185   -1.0750 H   0  0  0  0  0  0  0  0  0  0  0  0
   -4.6059    2.5820   -2.5763 H   0  0  0  0  0  0  0  0  0  0  0  0
  1 12  1  0  0  0  0
  1 16  1  0  0  0  0
  2 14  1  0  0  0  0
  2 31  1  0  0  0  0
  3 17  1  0  0  0  0
  3 61  1  0  0  0  0
  4 23  2  0  0  0  0
  5 29  1  0  0  0  0
  5 36  1  0  0  0  0
  6 29  2  0  0  0  0
  7 33  1  0  0  0  0
  7 35  1  0  0  0  0
  8 31  2  0  0  0  0
  9 10  1  0  0  0  0
  9 12  1  0  0  0  0
  9 15  1  0  0  0  0
  9 18  1  0  0  0  0
 10 11  1  0  0  0  0
 10 19  1  0  0  0  0
 10 37  1  0  0  0  0
 11 13  1  0  0  0  0
 11 22  1  0  0  0  0
 11 23  1  0  0  0  0
 12 14  1  0  0  0  0
 12 38  1  0  0  0  0
 13 14  1  0  0  0  0
 13 17  1  0  0  0  0
 13 39  1  0  0  0  0
 14 40  1  0  0  0  0
 15 16  1  0  0  0  0
 15 21  2  0  0  0  0
 16 20  1  0  0  0  0
 16 41  1  0  0  0  0
 17 25  1  0  0  0  0
 17 27  1  0  0  0  0
 18 42  1  0  0  0  0
 18 43  1  0  0  0  0
 18 44  1  0  0  0  0
 19 29  1  0  0  0  0
 19 45  1  0  0  0  0
 19 46  1  0  0  0  0
 20 24  1  0  0  0  0
 20 47  1  0  0  0  0
 20 48  1  0  0  0  0
 21 24  1  0  0  0  0
 21 28  1  0  0  0  0
 22 49  1  0  0  0  0
 22 50  1  0  0  0  0
 22 51  1  0  0  0  0
 23 26  1  0  0  0  0
 24 30  1  0  0  0  0
 24 52  1  0  0  0  0
 25 26  2  0  0  0  0
 25 53  1  0  0  0  0
 26 54  1  0  0  0  0
 27 55  1  0  0  0  0
 27 56  1  0  0  0  0
 27 57  1  0  0  0  0
 28 58  1  0  0  0  0
 28 59  1  0  0  0  0
 28 60  1  0  0  0  0
 30 32  1  0  0  0  0
 30 33  2  0  0  0  0
 31 34  1  0  0  0  0
 32 35  2  0  0  0  0
 32 62  1  0  0  0  0
 33 63  1  0  0  0  0
 34 64  1  0  0  0  0
 34 65  1  0  0  0  0
 34 66  1  0  0  0  0
 35 67  1  0  0  0  0
 36 68  1  0  0  0  0
 36 69  1  0  0  0  0
 36 70  1  0  0  0  0
M  END
> <PUBCHEM_COMPOUND_CID>
52952216

> <PUBCHEM_CONFORMER_RMSD>
1

> <PUBCHEM_CONFORMER_DIVERSEORDER>
1
2
3

> <PUBCHEM_MMFF94_PARTIAL_CHARGES>
36
1 -0.56
11 0.06
12 0.28
14 0.28
15 -0.28
16 0.42
17 0.42
19 0.06
2 -0.43
21 -0.28
23 0.49
24 0.32
25 -0.29
26 -0.14
28 0.14
29 0.66
3 -0.68
30 -0.18
31 0.66
32 -0.15
33 -0.01
34 0.06
35 -0.01
36 0.28
4 -0.57
5 -0.43
53 0.15
54 0.15
6 -0.57
61 0.4
62 0.15
63 0.15
67 0.15
7 -0.28
8 -0.57
9 0.14

> <PUBCHEM_EFFECTIVE_ROTOR_COUNT>
7.2

> <PUBCHEM_PHARMACOPHORE_FEATURES>
12
1 1 acceptor
1 3 acceptor
1 3 donor
1 4 acceptor
1 6 acceptor
1 7 acceptor
1 8 acceptor
5 1 9 12 15 16 rings
5 15 16 20 21 24 rings
5 7 30 32 33 35 rings
6 11 13 17 23 25 26 rings
6 9 10 11 12 13 14 rings

> <PUBCHEM_HEAVY_ATOM_COUNT>
36

> <PUBCHEM_ATOM_DEF_STEREO_COUNT>
9

> <PUBCHEM_ATOM_UDEF_STEREO_COUNT>
0

> <PUBCHEM_BOND_DEF_STEREO_COUNT>
0

> <PUBCHEM_BOND_UDEF_STEREO_COUNT>
0

> <PUBCHEM_ISOTOPIC_ATOM_COUNT>
0

> <PUBCHEM_COMPONENT_COUNT>
1

> <PUBCHEM_CACTVS_TAUTO_COUNT>
1

> <PUBCHEM_CONFORMER_ID>
0327FC9800000001

> <PUBCHEM_MMFF94_ENERGY>
118.1831

> <PUBCHEM_FEATURE_SELFOVERLAP>
61.463

> <PUBCHEM_SHAPE_FINGERPRINT>
10674148 151 17773047560904524192
1100329 8 17979063891058414288
11135609 12 18187365406894348404
12293681 4 17837490752549376222
12422481 6 18412265051700461657
12633257 1 18340205305472156601
12969540 114 12319470895792664337
13140716 1 17979068611480712706
13540713 4 18263353720436050764
13583140 156 18341322327734599164
13757389 114 17256824810810090852
14114211 80 17833287680410831172
14223421 5 18410846694485052172
14739800 52 17203327853042090011
14790565 3 17470179514272653661
14955137 171 18055366738024747375
1813 80 17240208741602832199
20511986 3 17417525921099530067
20739085 24 18118687853308043372
21033648 144 18121766498692176016
21033648 29 17968082166921044141
21421861 104 18041289862436951772
22182313 1 18260540113488752725
23559900 14 18263921043351981758
350125 39 18335707169001514404
392239 28 18116981376711540792
460360 51 18188483571570268250
5081480 168 17845670144112795662
508706 21 17968930878060103117
513532 50 17631473261640453878
5171179 24 18339073800738825031
56638632 10 17557686247481853512
59755656 215 18411142454554559790
70251023 43 18268410417979570471

> <PUBCHEM_SHAPE_MULTIPOLES>
693.91
10.83
4.14
2.04
6.28
0.39
-0.33
2.44
4.86
-3.68
-0.25
1.14
-0.44
2.4

> <PUBCHEM_SHAPE_SELFOVERLAP>
1513.802

> <PUBCHEM_SHAPE_VOLUME>
377.8

> <PUBCHEM_COORDINATE_TYPE>
2
5
10

$$$$
