102146586
  -OEChem-11202008223D

 83 88  0     1  0  0  0  0  0999 V2000
    2.8558    1.5786   -1.1446 O   0  0  0  0  0  0  0  0  0  0  0  0
    0.3031   -0.0006    2.9434 O   0  0  0  0  0  0  0  0  0  0  0  0
    0.3143   -2.7627   -0.4821 O   0  0  0  0  0  0  0  0  0  0  0  0
    4.1096   -2.0886    1.3742 O   0  0  0  0  0  0  0  0  0  0  0  0
    5.2372    1.3774   -0.8087 O   0  0  0  0  0  0  0  0  0  0  0  0
   -3.6596    1.3856    1.0257 O   0  0  0  0  0  0  0  0  0  0  0  0
   -1.0418    2.1381    1.2231 O   0  0  0  0  0  0  0  0  0  0  0  0
   -7.4336   -1.5692    0.3940 O   0  0  0  0  0  0  0  0  0  0  0  0
    6.4003   -1.8143    1.2544 O   0  0  0  0  0  0  0  0  0  0  0  0
    4.8897    1.8778   -3.0371 O   0  0  0  0  0  0  0  0  0  0  0  0
   -3.4987    3.5434    0.2164 O   0  0  0  0  0  0  0  0  0  0  0  0
    1.1859    0.4836    0.5870 C   0  0  1  0  0  0  0  0  0  0  0  0
    2.1783   -0.5385    0.1830 C   0  0  2  0  0  0  0  0  0  0  0  0
   -0.2774    0.0674    0.2156 C   0  0  2  0  0  0  0  0  0  0  0  0
   -0.5144   -0.5524   -1.2007 C   0  0  1  0  0  0  0  0  0  0  0  0
    3.6044    0.1866    0.6070 C   0  0  1  0  0  0  0  0  0  0  0  0
    1.9640   -1.1908   -1.2187 C   0  0  0  0  0  0  0  0  0  0  0  0
    1.4489    0.4454    2.2065 C   0  0  2  0  0  0  0  0  0  0  0  0
    0.5219   -1.6962   -1.4121 C   0  0  1  0  0  0  0  0  0  0  0  0
    1.6956    1.7575   -0.2164 C   0  0  0  0  0  0  0  0  0  0  0  0
   -1.9573   -1.0556   -1.2805 C   0  0  0  0  0  0  0  0  0  0  0  0
   -3.0407   -0.5338   -0.3385 C   0  0  1  0  0  0  0  0  0  0  0  0
    3.9556   -0.7297    1.7607 C   0  0  1  0  0  0  0  0  0  0  0  0
    2.6791   -0.5447    2.7392 C   0  0  0  0  0  0  0  0  0  0  0  0
    3.9917    0.6862   -0.7604 C   0  0  1  0  0  0  0  0  0  0  0  0
   -1.3209    1.1471    0.5462 C   0  0  0  0  0  0  0  0  0  0  0  0
   -2.7498    0.9325    0.0382 C   0  0  2  0  0  0  0  0  0  0  0  0
   -0.3794    0.4681   -2.3616 C   0  0  0  0  0  0  0  0  0  0  0  0
   -4.2843   -0.6782   -1.2872 C   0  0  1  0  0  0  0  0  0  0  0  0
    3.9634    1.5660    1.4285 C   0  0  0  0  0  0  0  0  0  0  0  0
   -2.4822   -1.8562   -2.2242 C   0  0  0  0  0  0  0  0  0  0  0  0
   -3.9708   -1.9356   -2.1271 C   0  0  0  0  0  0  0  0  0  0  0  0
   -3.1876   -1.4422    0.9085 C   0  0  0  0  0  0  0  0  0  0  0  0
   -5.6036   -0.7507   -0.6223 C   0  0  0  0  0  0  0  0  0  0  0  0
    5.3939   -2.5025    1.1510 C   0  0  0  0  0  0  0  0  0  0  0  0
   -6.4701    0.3289   -0.3275 C   0  0  0  0  0  0  0  0  0  0  0  0
   -6.2348   -1.8835   -0.1636 C   0  0  0  0  0  0  0  0  0  0  0  0
    5.5623    1.9273   -2.0162 C   0  0  0  0  0  0  0  0  0  0  0  0
   -3.9512    2.7234    1.0039 C   0  0  0  0  0  0  0  0  0  0  0  0
   -7.5690   -0.2211    0.2902 C   0  0  0  0  0  0  0  0  0  0  0  0
    5.4026   -3.9473    0.7529 C   0  0  0  0  0  0  0  0  0  0  0  0
    6.8893    2.6169   -1.9179 C   0  0  0  0  0  0  0  0  0  0  0  0
   -4.9197    3.0564    2.0980 C   0  0  0  0  0  0  0  0  0  0  0  0
    1.9869   -1.4320    0.7915 H   0  0  0  0  0  0  0  0  0  0  0  0
   -0.5043   -0.7487    0.9100 H   0  0  0  0  0  0  0  0  0  0  0  0
    2.1851   -0.5263   -2.0549 H   0  0  0  0  0  0  0  0  0  0  0  0
    2.6582   -2.0376   -1.3034 H   0  0  0  0  0  0  0  0  0  0  0  0
    1.6023    1.4725    2.5489 H   0  0  0  0  0  0  0  0  0  0  0  0
    0.4267   -2.1230   -2.4178 H   0  0  0  0  0  0  0  0  0  0  0  0
    1.8894    2.5966    0.4578 H   0  0  0  0  0  0  0  0  0  0  0  0
    0.8984    2.1554   -0.8490 H   0  0  0  0  0  0  0  0  0  0  0  0
    4.8387   -0.4271    2.3381 H   0  0  0  0  0  0  0  0  0  0  0  0
    3.0211   -0.1358    3.6995 H   0  0  0  0  0  0  0  0  0  0  0  0
    2.2597   -1.5309    2.9820 H   0  0  0  0  0  0  0  0  0  0  0  0
    4.0890   -0.1203   -1.4915 H   0  0  0  0  0  0  0  0  0  0  0  0
   -2.8408    1.5422   -0.8708 H   0  0  0  0  0  0  0  0  0  0  0  0
    0.6371    0.8355   -2.5022 H   0  0  0  0  0  0  0  0  0  0  0  0
   -1.0221    1.3431   -2.2245 H   0  0  0  0  0  0  0  0  0  0  0  0
   -0.6588    0.0150   -3.3214 H   0  0  0  0  0  0  0  0  0  0  0  0
   -4.3043    0.1786   -1.9803 H   0  0  0  0  0  0  0  0  0  0  0  0
    5.0527    1.5805    1.6000 H   0  0  0  0  0  0  0  0  0  0  0  0
    3.5493    1.6855    2.4287 H   0  0  0  0  0  0  0  0  0  0  0  0
    3.7843    2.5055    0.8989 H   0  0  0  0  0  0  0  0  0  0  0  0
   -1.9222   -2.3228   -3.0219 H   0  0  0  0  0  0  0  0  0  0  0  0
   -4.4401   -1.8664   -3.1141 H   0  0  0  0  0  0  0  0  0  0  0  0
   -4.2559   -2.8875   -1.6698 H   0  0  0  0  0  0  0  0  0  0  0  0
   -4.0229   -1.1296    1.5440 H   0  0  0  0  0  0  0  0  0  0  0  0
   -3.3489   -2.4910    0.6344 H   0  0  0  0  0  0  0  0  0  0  0  0
   -2.3043   -1.4239    1.5504 H   0  0  0  0  0  0  0  0  0  0  0  0
    0.5203    0.0641    3.8890 H   0  0  0  0  0  0  0  0  0  0  0  0
    0.9612   -3.4598   -0.6848 H   0  0  0  0  0  0  0  0  0  0  0  0
   -6.3193    1.3772   -0.5414 H   0  0  0  0  0  0  0  0  0  0  0  0
   -5.9864   -2.9348   -0.1471 H   0  0  0  0  0  0  0  0  0  0  0  0
   -8.4835    0.1892    0.6928 H   0  0  0  0  0  0  0  0  0  0  0  0
    4.9898   -4.5564    1.5608 H   0  0  0  0  0  0  0  0  0  0  0  0
    6.4320   -4.2661    0.5655 H   0  0  0  0  0  0  0  0  0  0  0  0
    4.8242   -4.0812   -0.1648 H   0  0  0  0  0  0  0  0  0  0  0  0
    6.8371    3.4155   -1.1736 H   0  0  0  0  0  0  0  0  0  0  0  0
    7.1412    3.0588   -2.8861 H   0  0  0  0  0  0  0  0  0  0  0  0
    7.6640    1.8930   -1.6528 H   0  0  0  0  0  0  0  0  0  0  0  0
   -4.4717    2.8300    3.0687 H   0  0  0  0  0  0  0  0  0  0  0  0
   -5.8456    2.4930    1.9612 H   0  0  0  0  0  0  0  0  0  0  0  0
   -5.1539    4.1242    2.0622 H   0  0  0  0  0  0  0  0  0  0  0  0
  1 20  1  0  0  0  0
  1 25  1  0  0  0  0
  2 18  1  0  0  0  0
  2 70  1  0  0  0  0
  3 19  1  0  0  0  0
  3 71  1  0  0  0  0
  4 23  1  0  0  0  0
  4 35  1  0  0  0  0
  5 25  1  0  0  0  0
  5 38  1  0  0  0  0
  6 27  1  0  0  0  0
  6 39  1  0  0  0  0
  7 26  2  0  0  0  0
  8 37  1  0  0  0  0
  8 40  1  0  0  0  0
  9 35  2  0  0  0  0
 10 38  2  0  0  0  0
 11 39  2  0  0  0  0
 12 13  1  0  0  0  0
 12 14  1  0  0  0  0
 12 18  1  0  0  0  0
 12 20  1  0  0  0  0
 13 16  1  0  0  0  0
 13 17  1  0  0  0  0
 13 44  1  0  0  0  0
 14 15  1  0  0  0  0
 14 26  1  0  0  0  0
 14 45  1  0  0  0  0
 15 19  1  0  0  0  0
 15 21  1  0  0  0  0
 15 28  1  0  0  0  0
 16 23  1  0  0  0  0
 16 25  1  0  0  0  0
 16 30  1  0  0  0  0
 17 19  1  0  0  0  0
 17 46  1  0  0  0  0
 17 47  1  0  0  0  0
 18 24  1  0  0  0  0
 18 48  1  0  0  0  0
 19 49  1  0  0  0  0
 20 50  1  0  0  0  0
 20 51  1  0  0  0  0
 21 22  1  0  0  0  0
 21 31  2  0  0  0  0
 22 27  1  0  0  0  0
 22 29  1  0  0  0  0
 22 33  1  0  0  0  0
 23 24  1  0  0  0  0
 23 52  1  0  0  0  0
 24 53  1  0  0  0  0
 24 54  1  0  0  0  0
 25 55  1  0  0  0  0
 26 27  1  0  0  0  0
 27 56  1  0  0  0  0
 28 57  1  0  0  0  0
 28 58  1  0  0  0  0
 28 59  1  0  0  0  0
 29 32  1  0  0  0  0
 29 34  1  0  0  0  0
 29 60  1  0  0  0  0
 30 61  1  0  0  0  0
 30 62  1  0  0  0  0
 30 63  1  0  0  0  0
 31 32  1  0  0  0  0
 31 64  1  0  0  0  0
 32 65  1  0  0  0  0
 32 66  1  0  0  0  0
 33 67  1  0  0  0  0
 33 68  1  0  0  0  0
 33 69  1  0  0  0  0
 34 36  1  0  0  0  0
 34 37  2  0  0  0  0
 35 41  1  0  0  0  0
 36 40  2  0  0  0  0
 36 72  1  0  0  0  0
 37 73  1  0  0  0  0
 38 42  1  0  0  0  0
 39 43  1  0  0  0  0
 40 74  1  0  0  0  0
 41 75  1  0  0  0  0
 41 76  1  0  0  0  0
 41 77  1  0  0  0  0
 42 78  1  0  0  0  0
 42 79  1  0  0  0  0
 42 80  1  0  0  0  0
 43 81  1  0  0  0  0
 43 82  1  0  0  0  0
 43 83  1  0  0  0  0
M  END
> <PUBCHEM_COMPOUND_CID>
102146586

> <PUBCHEM_CONFORMER_RMSD>
1.2

> <PUBCHEM_CONFORMER_DIVERSEORDER>
1

> <PUBCHEM_MMFF94_PARTIAL_CHARGES>
41
1 -0.56
10 -0.57
11 -0.57
14 0.06
15 0.14
18 0.28
19 0.28
2 -0.68
20 0.28
21 -0.28
22 0.14
23 0.28
25 0.56
26 0.45
27 0.34
29 0.18
3 -0.68
31 -0.29
32 0.14
34 -0.18
35 0.66
36 -0.15
37 -0.01
38 0.66
39 0.66
4 -0.43
40 -0.01
41 0.06
42 0.06
43 0.06
5 -0.43
6 -0.43
64 0.15
7 -0.57
70 0.4
71 0.4
72 0.15
73 0.15
74 0.15
8 -0.28
9 -0.57

> <PUBCHEM_EFFECTIVE_ROTOR_COUNT>
9.2

> <PUBCHEM_PHARMACOPHORE_FEATURES>
16
1 1 acceptor
1 10 acceptor
1 11 acceptor
1 2 acceptor
1 2 donor
1 3 acceptor
1 3 donor
1 7 acceptor
1 8 acceptor
1 9 acceptor
5 21 22 29 31 32 rings
5 8 34 36 37 40 rings
6 1 12 13 16 20 25 rings
6 12 13 14 15 17 19 rings
6 12 13 16 18 23 24 rings
6 14 15 21 22 26 27 rings

> <PUBCHEM_HEAVY_ATOM_COUNT>
43

> <PUBCHEM_ATOM_DEF_STEREO_COUNT>
11

> <PUBCHEM_ATOM_UDEF_STEREO_COUNT>
1

> <PUBCHEM_BOND_DEF_STEREO_COUNT>
0

> <PUBCHEM_BOND_UDEF_STEREO_COUNT>
0

> <PUBCHEM_ISOTOPIC_ATOM_COUNT>
0

> <PUBCHEM_COMPONENT_COUNT>
1

> <PUBCHEM_CACTVS_TAUTO_COUNT>
16

> <PUBCHEM_CONFORMER_ID>
0616A21A00000001

> <PUBCHEM_MMFF94_ENERGY>
283.5651

> <PUBCHEM_FEATURE_SELFOVERLAP>
82.004

> <PUBCHEM_SHAPE_FINGERPRINT>
10290309 65 17560526088964569231
10670039 82 18202012035484524829
12120059 20 14274321244751504755
12236239 1 18260827103272179301
12422481 6 17773585032346573846
12596602 18 17967530182140448817
12788726 201 18342178877816363113
13140716 1 17700417979947510371
13383668 40 15482676728744534854
13533116 47 18334288781863817426
13782708 43 17346875654848253415
13811026 1 13768191805943926544
14118638 360 18410859866870570332
14294032 229 18058466335236335785
14415360 78 17025730444716397892
15001296 14 18056473078877630513
15131766 46 17896322595773545412
21033648 29 15410889686826836446
21033650 10 18059869388770170664
21792964 463 17968394393506029229
22182313 1 15913324689482730940
23522609 53 18267045928049217641
23569943 247 17465086155790857402
25147074 1 18410578357860999980
25223398 141 18129367233776181705
34797466 226 17240478134789046614
350125 39 17917998274246884681
4093350 32 17967528000228549198
4340502 62 16298661785063268878
4516262 110 18114746044541655052
46194498 28 17749378249100949926
508706 21 17489863852285724381
5104073 3 18130779019279554739
57527293 21 18263940847335738289
59755656 215 17275114937513360301
70251023 43 17823127944273261490

> <PUBCHEM_SHAPE_MULTIPOLES>
820.36
16.76
3.38
2.54
6.6
0.18
0.18
-1.11
0.79
-1.23
-0.37
-2.97
0.44
-5.2

> <PUBCHEM_SHAPE_SELFOVERLAP>
1786.035

> <PUBCHEM_SHAPE_VOLUME>
440.3

> <PUBCHEM_COORDINATE_TYPE>
2
5
10

$$$$
