13875741
  -OEChem-11202008123D

 62 66  0     1  0  0  0  0  0999 V2000
    0.8425   -1.7387    1.6705 O   0  0  0  0  0  0  0  0  0  0  0  0
   -4.2909   -2.4705    0.0888 O   0  0  0  0  0  0  0  0  0  0  0  0
    6.1291    1.5647    1.1254 O   0  0  0  0  0  0  0  0  0  0  0  0
   -6.5052    0.9987    1.1814 O   0  0  0  0  0  0  0  0  0  0  0  0
    0.2748   -0.9870   -0.6047 C   0  0  1  0  0  0  0  0  0  0  0  0
    0.8466    0.4678   -0.4209 C   0  0  1  0  0  0  0  0  0  0  0  0
    2.4153    0.6159   -0.6418 C   0  0  1  0  0  0  0  0  0  0  0  0
    3.1122   -0.4056    0.3294 C   0  0  1  0  0  0  0  0  0  0  0  0
   -2.0397    0.2674   -0.1765 C   0  0  1  0  0  0  0  0  0  0  0  0
    1.0941   -1.9755    0.2793 C   0  0  1  0  0  0  0  0  0  0  0  0
   -1.2206   -1.0173   -0.2431 C   0  0  0  0  0  0  0  0  0  0  0  0
   -0.0190    1.5572   -1.1199 C   0  0  0  0  0  0  0  0  0  0  0  0
    2.6153   -1.8492    0.0860 C   0  0  0  0  0  0  0  0  0  0  0  0
   -1.5191    1.2445   -1.2383 C   0  0  0  0  0  0  0  0  0  0  0  0
    4.6648   -0.2552    0.4615 C   0  0  0  0  0  0  0  0  0  0  0  0
   -3.4673   -0.2540   -0.5256 C   0  0  1  0  0  0  0  0  0  0  0  0
    0.3438   -1.4663   -2.0796 C   0  0  0  0  0  0  0  0  0  0  0  0
    2.8289    0.4539   -2.1216 C   0  0  0  0  0  0  0  0  0  0  0  0
    2.8850    2.0071   -0.2385 C   0  0  0  0  0  0  0  0  0  0  0  0
   -1.9564   -2.1302   -0.0907 C   0  0  0  0  0  0  0  0  0  0  0  0
   -1.9839    0.8896    1.2373 C   0  0  0  0  0  0  0  0  0  0  0  0
   -3.3635   -1.7010   -0.1096 C   0  0  0  0  0  0  0  0  0  0  0  0
    5.0257    1.2206    0.6977 C   0  0  0  0  0  0  0  0  0  0  0  0
    4.0438    2.2812    0.3698 C   0  0  0  0  0  0  0  0  0  0  0  0
    5.4720   -0.7553   -0.7453 C   0  0  0  0  0  0  0  0  0  0  0  0
    5.1576   -1.0362    1.7060 C   0  0  0  0  0  0  0  0  0  0  0  0
   -4.6451    0.5041    0.0223 C   0  0  0  0  0  0  0  0  0  0  0  0
   -5.0082    1.8401   -0.2688 C   0  0  0  0  0  0  0  0  0  0  0  0
   -5.5861    0.0357    0.9088 C   0  0  0  0  0  0  0  0  0  0  0  0
   -6.1464    2.0936    0.4608 C   0  0  0  0  0  0  0  0  0  0  0  0
    0.7325    0.6855    0.6496 H   0  0  0  0  0  0  0  0  0  0  0  0
    2.7411   -0.1409    1.3346 H   0  0  0  0  0  0  0  0  0  0  0  0
    0.7972   -3.0110    0.0722 H   0  0  0  0  0  0  0  0  0  0  0  0
    0.3553    1.7922   -2.1205 H   0  0  0  0  0  0  0  0  0  0  0  0
    0.0731    2.4877   -0.5449 H   0  0  0  0  0  0  0  0  0  0  0  0
    2.9020   -2.2020   -0.9081 H   0  0  0  0  0  0  0  0  0  0  0  0
    3.0959   -2.5273    0.7988 H   0  0  0  0  0  0  0  0  0  0  0  0
   -2.0815    2.1855   -1.2091 H   0  0  0  0  0  0  0  0  0  0  0  0
   -1.6982    0.8318   -2.2403 H   0  0  0  0  0  0  0  0  0  0  0  0
   -3.5940   -0.2837   -1.6193 H   0  0  0  0  0  0  0  0  0  0  0  0
   -0.2273   -2.3911   -2.2298 H   0  0  0  0  0  0  0  0  0  0  0  0
    1.3548   -1.7053   -2.4070 H   0  0  0  0  0  0  0  0  0  0  0  0
   -0.0613   -0.7253   -2.7755 H   0  0  0  0  0  0  0  0  0  0  0  0
    2.0439    0.7651   -2.8154 H   0  0  0  0  0  0  0  0  0  0  0  0
    3.7019    1.0661   -2.3788 H   0  0  0  0  0  0  0  0  0  0  0  0
    3.0972   -0.5731   -2.3758 H   0  0  0  0  0  0  0  0  0  0  0  0
    2.2635    2.8566   -0.5073 H   0  0  0  0  0  0  0  0  0  0  0  0
   -1.6370   -3.1577   -0.1194 H   0  0  0  0  0  0  0  0  0  0  0  0
   -0.9733    1.1022    1.5868 H   0  0  0  0  0  0  0  0  0  0  0  0
   -2.4327    0.2223    1.9830 H   0  0  0  0  0  0  0  0  0  0  0  0
   -2.5265    1.8405    1.2726 H   0  0  0  0  0  0  0  0  0  0  0  0
    4.3203    3.3049    0.5975 H   0  0  0  0  0  0  0  0  0  0  0  0
    5.1898   -1.7725   -1.0325 H   0  0  0  0  0  0  0  0  0  0  0  0
    6.5449   -0.7717   -0.5155 H   0  0  0  0  0  0  0  0  0  0  0  0
    5.3706   -0.1058   -1.6167 H   0  0  0  0  0  0  0  0  0  0  0  0
    6.2194   -0.8491    1.9064 H   0  0  0  0  0  0  0  0  0  0  0  0
    5.0494   -2.1179    1.5810 H   0  0  0  0  0  0  0  0  0  0  0  0
    4.6074   -0.7368    2.6054 H   0  0  0  0  0  0  0  0  0  0  0  0
    1.3117   -2.4241    2.1761 H   0  0  0  0  0  0  0  0  0  0  0  0
   -4.5108    2.5357   -0.9290 H   0  0  0  0  0  0  0  0  0  0  0  0
   -5.7449   -0.8981    1.4278 H   0  0  0  0  0  0  0  0  0  0  0  0
   -6.7877    2.9558    0.5701 H   0  0  0  0  0  0  0  0  0  0  0  0
  1 10  1  0  0  0  0
  1 59  1  0  0  0  0
  2 22  2  0  0  0  0
  3 23  2  0  0  0  0
  4 29  1  0  0  0  0
  4 30  1  0  0  0  0
  5  6  1  0  0  0  0
  5 10  1  0  0  0  0
  5 11  1  0  0  0  0
  5 17  1  0  0  0  0
  6  7  1  0  0  0  0
  6 12  1  0  0  0  0
  6 31  1  0  0  0  0
  7  8  1  0  0  0  0
  7 18  1  0  0  0  0
  7 19  1  0  0  0  0
  8 13  1  0  0  0  0
  8 15  1  0  0  0  0
  8 32  1  0  0  0  0
  9 11  1  0  0  0  0
  9 14  1  0  0  0  0
  9 16  1  0  0  0  0
  9 21  1  0  0  0  0
 10 13  1  0  0  0  0
 10 33  1  0  0  0  0
 11 20  2  0  0  0  0
 12 14  1  0  0  0  0
 12 34  1  0  0  0  0
 12 35  1  0  0  0  0
 13 36  1  0  0  0  0
 13 37  1  0  0  0  0
 14 38  1  0  0  0  0
 14 39  1  0  0  0  0
 15 23  1  0  0  0  0
 15 25  1  0  0  0  0
 15 26  1  0  0  0  0
 16 22  1  0  0  0  0
 16 27  1  0  0  0  0
 16 40  1  0  0  0  0
 17 41  1  0  0  0  0
 17 42  1  0  0  0  0
 17 43  1  0  0  0  0
 18 44  1  0  0  0  0
 18 45  1  0  0  0  0
 18 46  1  0  0  0  0
 19 24  2  0  0  0  0
 19 47  1  0  0  0  0
 20 22  1  0  0  0  0
 20 48  1  0  0  0  0
 21 49  1  0  0  0  0
 21 50  1  0  0  0  0
 21 51  1  0  0  0  0
 23 24  1  0  0  0  0
 24 52  1  0  0  0  0
 25 53  1  0  0  0  0
 25 54  1  0  0  0  0
 25 55  1  0  0  0  0
 26 56  1  0  0  0  0
 26 57  1  0  0  0  0
 26 58  1  0  0  0  0
 27 28  1  0  0  0  0
 27 29  2  0  0  0  0
 28 30  2  0  0  0  0
 28 60  1  0  0  0  0
 29 61  1  0  0  0  0
 30 62  1  0  0  0  0
M  END
> <PUBCHEM_COMPOUND_CID>
13875741

> <PUBCHEM_CONFORMER_RMSD>
0.6

> <PUBCHEM_CONFORMER_DIVERSEORDER>
1
2

> <PUBCHEM_MMFF94_PARTIAL_CHARGES>
27
1 -0.68
10 0.28
11 -0.28
15 0.06
16 0.24
19 -0.29
2 -0.57
20 -0.14
22 0.49
23 0.49
24 -0.14
27 -0.18
28 -0.15
29 -0.01
3 -0.57
30 -0.01
4 -0.28
47 0.15
48 0.15
5 0.14
52 0.15
59 0.4
60 0.15
61 0.15
62 0.15
7 0.14
9 0.14

> <PUBCHEM_EFFECTIVE_ROTOR_COUNT>
2.2

> <PUBCHEM_PHARMACOPHORE_FEATURES>
11
1 1 acceptor
1 1 donor
1 2 acceptor
1 3 acceptor
1 4 acceptor
3 15 25 26 hydrophobe
5 4 27 28 29 30 rings
5 9 11 16 20 22 rings
6 5 6 7 8 10 13 rings
6 5 6 9 11 12 14 rings
6 7 8 15 19 23 24 rings

> <PUBCHEM_HEAVY_ATOM_COUNT>
30

> <PUBCHEM_ATOM_DEF_STEREO_COUNT>
7

> <PUBCHEM_ATOM_UDEF_STEREO_COUNT>
0

> <PUBCHEM_BOND_DEF_STEREO_COUNT>
0

> <PUBCHEM_BOND_UDEF_STEREO_COUNT>
0

> <PUBCHEM_ISOTOPIC_ATOM_COUNT>
0

> <PUBCHEM_COMPONENT_COUNT>
1

> <PUBCHEM_CACTVS_TAUTO_COUNT>
2

> <PUBCHEM_CONFORMER_ID>
00D3BA1D00000001

> <PUBCHEM_MMFF94_ENERGY>
113.4498

> <PUBCHEM_FEATURE_SELFOVERLAP>
55.928

> <PUBCHEM_SHAPE_FINGERPRINT>
10 15 18408046221463609321
10674148 151 18410577306554043384
10693767 8 9295297118721368904
10906281 52 17968950798418692742
11089746 13 18272365365456748549
11578080 2 13325479990602862713
11961588 58 13686005536560196828
12107183 9 18337382730570438658
12236239 1 18343580745997811715
12403259 118 18271516597834573847
12403259 415 18260260828808615876
12422481 6 18260260820070715045
12516196 113 12324244970552808526
12616971 3 17385726919495363247
12633257 1 18334852801232141418
13140716 1 18261393389977248742
13224815 77 18335133228590370358
13782708 43 13623529069366601609
13785724 45 18052536574374935026
14341114 176 18409729539158153760
14347332 77 8502657000239752171
14790565 3 18337955704634416236
15142383 8 16732977583917829965
15196674 1 18409728508086330470
15238133 3 18261402134546702460
15788980 27 16660640774034694911
1601671 61 18413107247067501205
17349148 13 16081092580058430807
17492 54 13183022929752998332
17980427 23 18342173406054389221
1813 80 16226047782085663390
20511986 3 18340192038803481973
20691752 17 17385998511625874414
20715895 44 18268993086164588521
21033648 144 18411128130786127613
21033648 29 17846202402499075002
21421861 104 17822845364931033898
21452121 103 18340207397258483439
21792934 111 17968100756115144181
21859007 373 17533769417594212349
22182313 1 17823409393042156829
23522609 53 17750823010999770532
23559900 14 17987534623102071975
23569914 2 17268578319064399313
24771293 8 18264483052945442052
2838139 119 18273489070308372133
32027 91 17273719575406122878
335352 9 18410294687781214926
34797466 226 17561091344845409677
34934 24 18341892991749704383
350125 39 18334860493946090108
3633792 109 18268986497990594757
3680242 22 18334293141503354584
392239 28 18040987462564055258
4073 2 18188213207885176810
4093350 32 17489590048420986060
4340502 62 18411424986198817673
465052 167 14634870842741968448
5104073 3 18334573581150334499
59755656 215 18340493248965144110
6086070 43 17988628736340831329
7226269 152 18131352977904523057
7495541 125 13406801033753832815
86090 222 15430599420765940864

> <PUBCHEM_SHAPE_MULTIPOLES>
593.91
13.99
2.48
1.44
5.92
0.17
-0.26
-5.62
5.3
0.44
0.14
-0.88
0.08
-0.24

> <PUBCHEM_SHAPE_SELFOVERLAP>
1303.677

> <PUBCHEM_SHAPE_VOLUME>
320.2

> <PUBCHEM_COORDINATE_TYPE>
2
5
10

$$$$
