157144
  -OEChem-11202008303D

 84 89  0     1  0  0  0  0  0999 V2000
   -2.7805    3.1769    1.4015 O   0  0  0  0  0  0  0  0  0  0  0  0
   -0.0890    2.3183    1.5253 O   0  0  0  0  0  0  0  0  0  0  0  0
   -1.9134   -1.7782    0.1805 O   0  0  0  0  0  0  0  0  0  0  0  0
   -3.8842   -0.7049    2.0582 O   0  0  0  0  0  0  0  0  0  0  0  0
    2.2071   -0.8758   -2.9735 O   0  0  0  0  0  0  0  0  0  0  0  0
    1.8605   -1.0776   -0.7013 O   0  0  0  0  0  0  0  0  0  0  0  0
   -2.4029   -3.7617   -0.8898 O   0  0  0  0  0  0  0  0  0  0  0  0
    4.8392   -1.1915    1.7830 O   0  0  0  0  0  0  0  0  0  0  0  0
   -2.1510    0.3863   -1.0329 C   0  0  1  0  0  0  0  0  0  0  0  0
   -2.5701    1.2093    0.1896 C   0  0  2  0  0  0  0  0  0  0  0  0
    0.0659    1.9069   -0.8792 C   0  0  1  0  0  0  0  0  0  0  0  0
   -0.5615    0.4525   -1.0439 C   0  0  2  0  0  0  0  0  0  0  0  0
   -4.0316    1.2762    0.6101 C   0  0  1  0  0  0  0  0  0  0  0  0
   -2.1338    2.6486    0.2265 C   0  0  2  0  0  0  0  0  0  0  0  0
   -0.6169    2.7586    0.2487 C   0  0  1  0  0  0  0  0  0  0  0  0
   -2.7049   -1.0659   -0.7732 C   0  0  2  0  0  0  0  0  0  0  0  0
   -4.5107   -0.1615    0.8976 C   0  0  1  0  0  0  0  0  0  0  0  0
    1.3932    1.8065   -0.1882 C   0  0  0  0  0  0  0  0  0  0  0  0
   -3.8365    2.2471    1.7944 C   0  0  0  0  0  0  0  0  0  0  0  0
   -4.1857   -1.0999   -0.2957 C   0  0  0  0  0  0  0  0  0  0  0  0
    1.1492    1.6654    1.2753 C   0  0  1  0  0  0  0  0  0  0  0  0
   -2.7457    0.8930   -2.3630 C   0  0  0  0  0  0  0  0  0  0  0  0
    0.0823   -0.3462   -2.1903 C   0  0  0  0  0  0  0  0  0  0  0  0
    0.0963    2.7275   -2.1761 C   0  0  0  0  0  0  0  0  0  0  0  0
   -5.0163    1.9503   -0.3713 C   0  0  0  0  0  0  0  0  0  0  0  0
    2.6908    1.9864   -0.4701 C   0  0  0  0  0  0  0  0  0  0  0  0
    2.3819    2.3230    1.8730 C   0  0  0  0  0  0  0  0  0  0  0  0
    3.4898    2.0933    0.8177 C   0  0  1  0  0  0  0  0  0  0  0  0
    1.4661   -0.8087   -1.8277 C   0  0  0  0  0  0  0  0  0  0  0  0
    3.3600    2.2016   -1.7806 C   0  0  0  0  0  0  0  0  0  0  0  0
    4.2766    0.8677    1.0793 C   0  0  0  0  0  0  0  0  0  0  0  0
   -1.8493   -3.1316    0.0007 C   0  0  0  0  0  0  0  0  0  0  0  0
    5.6229    0.6250    0.7162 C   0  0  0  0  0  0  0  0  0  0  0  0
    3.8447   -0.2672    1.7255 C   0  0  0  0  0  0  0  0  0  0  0  0
   -1.0118   -3.7381    1.1064 C   0  0  0  0  0  0  0  0  0  0  0  0
   -0.3432   -5.0611    0.7015 C   0  0  0  0  0  0  0  0  0  0  0  0
    5.9178   -0.6407    1.1666 C   0  0  0  0  0  0  0  0  0  0  0  0
    3.5629   -1.3028   -2.8063 C   0  0  0  0  0  0  0  0  0  0  0  0
    0.5897   -4.8726   -0.4974 C   0  0  0  0  0  0  0  0  0  0  0  0
    0.4421   -5.6343    1.8827 C   0  0  0  0  0  0  0  0  0  0  0  0
   -2.0556    0.7238    1.0397 H   0  0  0  0  0  0  0  0  0  0  0  0
   -0.2828   -0.0831   -0.1264 H   0  0  0  0  0  0  0  0  0  0  0  0
   -2.5105    3.2175   -0.6289 H   0  0  0  0  0  0  0  0  0  0  0  0
   -0.3398    3.8197    0.1761 H   0  0  0  0  0  0  0  0  0  0  0  0
   -2.6593   -1.5957   -1.7344 H   0  0  0  0  0  0  0  0  0  0  0  0
   -5.5896   -0.1690    1.0915 H   0  0  0  0  0  0  0  0  0  0  0  0
   -3.4908    1.7402    2.7018 H   0  0  0  0  0  0  0  0  0  0  0  0
   -4.7333    2.8210    2.0476 H   0  0  0  0  0  0  0  0  0  0  0  0
   -4.8392   -0.8475   -1.1372 H   0  0  0  0  0  0  0  0  0  0  0  0
   -4.4424   -2.1256   -0.0031 H   0  0  0  0  0  0  0  0  0  0  0  0
    1.0515    0.6188    1.5776 H   0  0  0  0  0  0  0  0  0  0  0  0
   -2.7592    1.9810   -2.4363 H   0  0  0  0  0  0  0  0  0  0  0  0
   -2.1869    0.5123   -3.2233 H   0  0  0  0  0  0  0  0  0  0  0  0
   -3.7714    0.5537   -2.5208 H   0  0  0  0  0  0  0  0  0  0  0  0
    0.1003    0.2189   -3.1246 H   0  0  0  0  0  0  0  0  0  0  0  0
   -0.4844   -1.2618   -2.3913 H   0  0  0  0  0  0  0  0  0  0  0  0
    0.6018    2.2197   -2.9989 H   0  0  0  0  0  0  0  0  0  0  0  0
    0.6254    3.6774   -2.0266 H   0  0  0  0  0  0  0  0  0  0  0  0
   -0.9059    2.9897   -2.5189 H   0  0  0  0  0  0  0  0  0  0  0  0
   -5.2277    1.3458   -1.2536 H   0  0  0  0  0  0  0  0  0  0  0  0
   -5.9828    2.1107    0.1229 H   0  0  0  0  0  0  0  0  0  0  0  0
   -4.6734    2.9303   -0.7152 H   0  0  0  0  0  0  0  0  0  0  0  0
    2.2030    3.4003    1.9978 H   0  0  0  0  0  0  0  0  0  0  0  0
    2.6174    1.9365    2.8706 H   0  0  0  0  0  0  0  0  0  0  0  0
    4.1468    2.9714    0.7972 H   0  0  0  0  0  0  0  0  0  0  0  0
   -4.2459   -1.5963    2.1997 H   0  0  0  0  0  0  0  0  0  0  0  0
    3.6628    3.2485   -1.8816 H   0  0  0  0  0  0  0  0  0  0  0  0
    2.7200    1.9478   -2.6266 H   0  0  0  0  0  0  0  0  0  0  0  0
    4.2570    1.5816   -1.8646 H   0  0  0  0  0  0  0  0  0  0  0  0
    6.2967    1.2869    0.1913 H   0  0  0  0  0  0  0  0  0  0  0  0
    2.9170   -0.5736    2.1855 H   0  0  0  0  0  0  0  0  0  0  0  0
   -1.6692   -3.8902    1.9700 H   0  0  0  0  0  0  0  0  0  0  0  0
   -0.2364   -3.0162    1.3926 H   0  0  0  0  0  0  0  0  0  0  0  0
   -1.1192   -5.7839    0.4199 H   0  0  0  0  0  0  0  0  0  0  0  0
    6.8016   -1.2606    1.1288 H   0  0  0  0  0  0  0  0  0  0  0  0
    4.0316   -0.8347   -1.9361 H   0  0  0  0  0  0  0  0  0  0  0  0
    3.5904   -2.3921   -2.7113 H   0  0  0  0  0  0  0  0  0  0  0  0
    4.1224   -1.0122   -3.6994 H   0  0  0  0  0  0  0  0  0  0  0  0
    0.0481   -4.5434   -1.3889 H   0  0  0  0  0  0  0  0  0  0  0  0
    1.0870   -5.8153   -0.7502 H   0  0  0  0  0  0  0  0  0  0  0  0
    1.3667   -4.1310   -0.2816 H   0  0  0  0  0  0  0  0  0  0  0  0
    0.8978   -6.5943    1.6177 H   0  0  0  0  0  0  0  0  0  0  0  0
   -0.2169   -5.8034    2.7409 H   0  0  0  0  0  0  0  0  0  0  0  0
    1.2416   -4.9549    2.1974 H   0  0  0  0  0  0  0  0  0  0  0  0
  1 14  1  0  0  0  0
  1 19  1  0  0  0  0
  2 15  1  0  0  0  0
  2 21  1  0  0  0  0
  3 16  1  0  0  0  0
  3 32  1  0  0  0  0
  4 17  1  0  0  0  0
  4 66  1  0  0  0  0
  5 29  1  0  0  0  0
  5 38  1  0  0  0  0
  6 29  2  0  0  0  0
  7 32  2  0  0  0  0
  8 34  1  0  0  0  0
  8 37  1  0  0  0  0
  9 10  1  0  0  0  0
  9 12  1  0  0  0  0
  9 16  1  0  0  0  0
  9 22  1  0  0  0  0
 10 13  1  0  0  0  0
 10 14  1  0  0  0  0
 10 41  1  0  0  0  0
 11 12  1  0  0  0  0
 11 15  1  0  0  0  0
 11 18  1  0  0  0  0
 11 24  1  0  0  0  0
 12 23  1  0  0  0  0
 12 42  1  0  0  0  0
 13 17  1  0  0  0  0
 13 19  1  0  0  0  0
 13 25  1  0  0  0  0
 14 15  1  0  0  0  0
 14 43  1  0  0  0  0
 15 44  1  0  0  0  0
 16 20  1  0  0  0  0
 16 45  1  0  0  0  0
 17 20  1  0  0  0  0
 17 46  1  0  0  0  0
 18 21  1  0  0  0  0
 18 26  2  0  0  0  0
 19 47  1  0  0  0  0
 19 48  1  0  0  0  0
 20 49  1  0  0  0  0
 20 50  1  0  0  0  0
 21 27  1  0  0  0  0
 21 51  1  0  0  0  0
 22 52  1  0  0  0  0
 22 53  1  0  0  0  0
 22 54  1  0  0  0  0
 23 29  1  0  0  0  0
 23 55  1  0  0  0  0
 23 56  1  0  0  0  0
 24 57  1  0  0  0  0
 24 58  1  0  0  0  0
 24 59  1  0  0  0  0
 25 60  1  0  0  0  0
 25 61  1  0  0  0  0
 25 62  1  0  0  0  0
 26 28  1  0  0  0  0
 26 30  1  0  0  0  0
 27 28  1  0  0  0  0
 27 63  1  0  0  0  0
 27 64  1  0  0  0  0
 28 31  1  0  0  0  0
 28 65  1  0  0  0  0
 30 67  1  0  0  0  0
 30 68  1  0  0  0  0
 30 69  1  0  0  0  0
 31 33  1  0  0  0  0
 31 34  2  0  0  0  0
 32 35  1  0  0  0  0
 33 37  2  0  0  0  0
 33 70  1  0  0  0  0
 34 71  1  0  0  0  0
 35 36  1  0  0  0  0
 35 72  1  0  0  0  0
 35 73  1  0  0  0  0
 36 39  1  0  0  0  0
 36 40  1  0  0  0  0
 36 74  1  0  0  0  0
 37 75  1  0  0  0  0
 38 76  1  0  0  0  0
 38 77  1  0  0  0  0
 38 78  1  0  0  0  0
 39 79  1  0  0  0  0
 39 80  1  0  0  0  0
 39 81  1  0  0  0  0
 40 82  1  0  0  0  0
 40 83  1  0  0  0  0
 40 84  1  0  0  0  0
M  END
> <PUBCHEM_COMPOUND_CID>
157144

> <PUBCHEM_CONFORMER_RMSD>
1

> <PUBCHEM_CONFORMER_DIVERSEORDER>
1
3
4
2

> <PUBCHEM_MMFF94_PARTIAL_CHARGES>
32
1 -0.56
11 0.14
14 0.28
15 0.28
16 0.28
17 0.28
18 -0.28
19 0.28
2 -0.56
21 0.42
23 0.06
26 -0.28
28 0.32
29 0.66
3 -0.43
30 0.14
31 -0.18
32 0.66
33 -0.15
34 -0.01
35 0.06
37 -0.01
38 0.28
4 -0.68
5 -0.43
6 -0.57
66 0.4
7 -0.57
70 0.15
71 0.15
75 0.15
8 -0.28

> <PUBCHEM_EFFECTIVE_ROTOR_COUNT>
9.8

> <PUBCHEM_PHARMACOPHORE_FEATURES>
14
1 1 acceptor
1 2 acceptor
1 4 acceptor
1 4 donor
1 6 acceptor
1 7 acceptor
1 8 acceptor
3 36 39 40 hydrophobe
5 1 10 13 14 19 rings
5 18 21 26 27 28 rings
5 2 11 15 18 21 rings
5 8 31 33 34 37 rings
6 9 10 11 12 14 15 rings
6 9 10 13 16 17 20 rings

> <PUBCHEM_HEAVY_ATOM_COUNT>
40

> <PUBCHEM_ATOM_DEF_STEREO_COUNT>
10

> <PUBCHEM_ATOM_UDEF_STEREO_COUNT>
1

> <PUBCHEM_BOND_DEF_STEREO_COUNT>
0

> <PUBCHEM_BOND_UDEF_STEREO_COUNT>
0

> <PUBCHEM_ISOTOPIC_ATOM_COUNT>
0

> <PUBCHEM_COMPONENT_COUNT>
1

> <PUBCHEM_CACTVS_TAUTO_COUNT>
1

> <PUBCHEM_CONFORMER_ID>
000265D800000001

> <PUBCHEM_MMFF94_ENERGY>
146.1136

> <PUBCHEM_FEATURE_SELFOVERLAP>
71.76

> <PUBCHEM_SHAPE_FINGERPRINT>
10305334 12 18270666568268084882
11552529 35 17977657933688168098
12156800 1 17825703098862882946
12422481 6 18131068178417286064
12633257 1 18342178928849399523
12788726 201 18122913293836953591
13140716 1 17913508852122455361
13726171 33 17912952735378015368
13947930 73 17899440837073421283
14020679 6 18343871008656867482
14725015 67 18269545204310287571
17974551 9 17914885680823358488
20764821 26 18410581677485799322
20775530 9 17107612286469019763
22223350 30 18265916707810934203
23516275 137 18046363937206733482
23559900 14 18057906661514169420
3493558 16 12602365079499489258
392239 28 18341898502388132171
45266715 3 18340474579032679871
4616759 239 17982992725989678512
463206 1 17758948612519595402
5265222 85 18334860511152527652
57527452 28 17750220552158949427
57527585 103 18267028452058957367

> <PUBCHEM_SHAPE_MULTIPOLES>
776.23
9.36
5.93
2.48
5.31
10.73
1.12
-2.86
-3.57
-1.66
-1.99
1.34
-0.06
-0.28

> <PUBCHEM_SHAPE_SELFOVERLAP>
1684.17

> <PUBCHEM_SHAPE_VOLUME>
426.1

> <PUBCHEM_COORDINATE_TYPE>
2
5
10

$$$$
