185729
  -OEChem-11202008202D

 67 72  0     1  0  0  0  0  0999 V2000
    6.6606   -2.2445    0.0000 O   0  0  0  0  0  0  0  0  0  0  0  0
    6.9088    0.0339    0.0000 O   0  0  0  0  0  0  0  0  0  0  0  0
    2.5405   -1.4630    0.0000 O   0  0  0  0  0  0  0  0  0  0  0  0
    4.2986   -4.5354    0.0000 O   0  0  0  0  0  0  0  0  0  0  0  0
    2.4648    4.1854    0.0000 O   0  0  0  0  0  0  0  0  0  0  0  0
    4.3107   -1.4661    0.0000 C   0  0  3  0  0  0  0  0  0  0  0  0
    5.1767   -1.9661    0.0000 C   0  0  3  0  0  0  0  0  0  0  0  0
    4.3107   -0.4661    0.0000 C   0  0  3  0  0  0  0  0  0  0  0  0
    5.1767    0.0339    0.0000 C   0  0  3  0  0  0  0  0  0  0  0  0
    5.1928   -3.0076    0.0000 C   0  0  3  0  0  0  0  0  0  0  0  0
    6.0427   -1.4661    0.0000 C   0  0  3  0  0  0  0  0  0  0  0  0
    6.0427   -0.4661    0.0000 C   0  0  3  0  0  0  0  0  0  0  0  0
    3.4007   -1.9730    0.0000 C   0  0  3  0  0  0  0  0  0  0  0  0
    4.2947    1.6032    0.0000 C   0  0  3  0  0  0  0  0  0  0  0  0
    5.1928    1.0754    0.0000 C   0  0  0  0  0  0  0  0  0  0  0  0
    3.4007    0.0407    0.0000 C   0  0  0  0  0  0  0  0  0  0  0  0
    4.2947   -3.5354    0.0000 C   0  0  3  0  0  0  0  0  0  0  0  0
    6.1808   -3.1148    0.0000 C   0  0  0  0  0  0  0  0  0  0  0  0
    3.3926   -3.0146    0.0000 C   0  0  0  0  0  0  0  0  0  0  0  0
    3.3926    1.0823    0.0000 C   0  0  0  0  0  0  0  0  0  0  0  0
    3.4446   -0.9661    0.0000 C   0  0  0  0  0  0  0  0  0  0  0  0
    6.0427    0.5339    0.0000 C   0  0  0  0  0  0  0  0  0  0  0  0
    4.5204    2.6137    0.0000 C   0  0  3  0  0  0  0  0  0  0  0  0
    5.7027   -3.8678    0.0000 C   0  0  0  0  0  0  0  0  0  0  0  0
    5.9658    1.7643    0.0000 C   0  0  0  0  0  0  0  0  0  0  0  0
    5.5511    2.7131    0.0000 C   0  0  0  0  0  0  0  0  0  0  0  0
    3.4326    2.1098    0.0000 C   0  0  0  0  0  0  0  0  0  0  0  0
    3.8583    3.3631    0.0000 C   0  0  0  0  0  0  0  0  0  0  0  0
    4.0755    4.3393    0.0000 C   0  0  0  0  0  0  0  0  0  0  0  0
    2.8629    3.2680    0.0000 C   0  0  0  0  0  0  0  0  0  0  0  0
    3.2142    4.8474    0.0000 C   0  0  0  0  0  0  0  0  0  0  0  0
    4.6422   -2.2802    0.0000 H   0  0  0  0  0  0  0  0  0  0  0  0
    4.8476   -0.7761    0.0000 H   0  0  0  0  0  0  0  0  0  0  0  0
    6.6282   -1.2620    0.0000 H   0  0  0  0  0  0  0  0  0  0  0  0
    6.5797   -0.7761    0.0000 H   0  0  0  0  0  0  0  0  0  0  0  0
    2.8608   -2.2778    0.0000 H   0  0  0  0  0  0  0  0  0  0  0  0
    2.7890    0.1421    0.0000 H   0  0  0  0  0  0  0  0  0  0  0  0
    3.1961   -0.5446    0.0000 H   0  0  0  0  0  0  0  0  0  0  0  0
    4.8334   -3.8423    0.0000 H   0  0  0  0  0  0  0  0  0  0  0  0
    6.0334   -3.7170    0.0000 H   0  0  0  0  0  0  0  0  0  0  0  0
    6.7584   -3.3401    0.0000 H   0  0  0  0  0  0  0  0  0  0  0  0
    2.7826   -2.9038    0.0000 H   0  0  0  0  0  0  0  0  0  0  0  0
    3.1791   -3.5966    0.0000 H   0  0  0  0  0  0  0  0  0  0  0  0
    3.1791    1.6644    0.0000 H   0  0  0  0  0  0  0  0  0  0  0  0
    2.7826    0.9715    0.0000 H   0  0  0  0  0  0  0  0  0  0  0  0
    3.7546   -0.4292    0.0000 H   0  0  0  0  0  0  0  0  0  0  0  0
    2.9077   -0.6561    0.0000 H   0  0  0  0  0  0  0  0  0  0  0  0
    3.1346   -1.5030    0.0000 H   0  0  0  0  0  0  0  0  0  0  0  0
    6.3527   -0.0030    0.0000 H   0  0  0  0  0  0  0  0  0  0  0  0
    6.5797    0.8439    0.0000 H   0  0  0  0  0  0  0  0  0  0  0  0
    5.7327    1.0708    0.0000 H   0  0  0  0  0  0  0  0  0  0  0  0
    4.7478    3.1905    0.0000 H   0  0  0  0  0  0  0  0  0  0  0  0
    5.1694   -4.1840    0.0000 H   0  0  0  0  0  0  0  0  0  0  0  0
    6.0189   -4.4011    0.0000 H   0  0  0  0  0  0  0  0  0  0  0  0
    6.2360   -3.5516    0.0000 H   0  0  0  0  0  0  0  0  0  0  0  0
    6.5715    1.6318    0.0000 H   0  0  0  0  0  0  0  0  0  0  0  0
    6.1422    2.9003    0.0000 H   0  0  0  0  0  0  0  0  0  0  0  0
    5.4271    3.3206    0.0000 H   0  0  0  0  0  0  0  0  0  0  0  0
    3.7467    2.6443    0.0000 H   0  0  0  0  0  0  0  0  0  0  0  0
    2.8980    2.4239    0.0000 H   0  0  0  0  0  0  0  0  0  0  0  0
    3.1184    1.5753    0.0000 H   0  0  0  0  0  0  0  0  0  0  0  0
    7.4457   -0.2761    0.0000 H   0  0  0  0  0  0  0  0  0  0  0  0
    2.0000   -1.7668    0.0000 H   0  0  0  0  0  0  0  0  0  0  0  0
    3.7628   -4.8474    0.0000 H   0  0  0  0  0  0  0  0  0  0  0  0
    4.6442    4.5861    0.0000 H   0  0  0  0  0  0  0  0  0  0  0  0
    2.5478    2.7340    0.0000 H   0  0  0  0  0  0  0  0  0  0  0  0
    3.1552    5.4646    0.0000 H   0  0  0  0  0  0  0  0  0  0  0  0
  1 11  1  0  0  0  0
  1 18  1  0  0  0  0
  2 12  1  0  0  0  0
  2 62  1  0  0  0  0
  3 13  1  0  0  0  0
  3 63  1  0  0  0  0
  4 17  1  0  0  0  0
  4 64  1  0  0  0  0
  5 30  1  0  0  0  0
  5 31  1  0  0  0  0
  6  7  1  0  0  0  0
  6  8  1  0  0  0  0
  6 13  1  0  0  0  0
  6 21  1  0  0  0  0
  7 10  1  0  0  0  0
  7 11  1  0  0  0  0
  7 32  1  0  0  0  0
  8  9  1  0  0  0  0
  8 16  1  0  0  0  0
  8 33  1  0  0  0  0
  9 12  1  0  0  0  0
  9 15  1  0  0  0  0
  9 22  1  0  0  0  0
 10 17  1  0  0  0  0
 10 18  1  0  0  0  0
 10 24  1  0  0  0  0
 11 12  1  0  0  0  0
 11 34  1  0  0  0  0
 12 35  1  0  0  0  0
 13 19  1  0  0  0  0
 13 36  1  0  0  0  0
 14 15  1  0  0  0  0
 14 20  1  0  0  0  0
 14 23  1  0  0  0  0
 14 27  1  0  0  0  0
 15 25  2  0  0  0  0
 16 20  1  0  0  0  0
 16 37  1  0  0  0  0
 16 38  1  0  0  0  0
 17 19  1  0  0  0  0
 17 39  1  0  0  0  0
 18 40  1  0  0  0  0
 18 41  1  0  0  0  0
 19 42  1  0  0  0  0
 19 43  1  0  0  0  0
 20 44  1  0  0  0  0
 20 45  1  0  0  0  0
 21 46  1  0  0  0  0
 21 47  1  0  0  0  0
 21 48  1  0  0  0  0
 22 49  1  0  0  0  0
 22 50  1  0  0  0  0
 22 51  1  0  0  0  0
 23 26  1  0  0  0  0
 23 28  1  0  0  0  0
 23 52  1  0  0  0  0
 24 53  1  0  0  0  0
 24 54  1  0  0  0  0
 24 55  1  0  0  0  0
 25 26  1  0  0  0  0
 25 56  1  0  0  0  0
 26 57  1  0  0  0  0
 26 58  1  0  0  0  0
 27 59  1  0  0  0  0
 27 60  1  0  0  0  0
 27 61  1  0  0  0  0
 28 29  1  0  0  0  0
 28 30  2  0  0  0  0
 29 31  2  0  0  0  0
 29 65  1  0  0  0  0
 30 66  1  0  0  0  0
 31 67  1  0  0  0  0
M  END
> <PUBCHEM_COMPOUND_CID>
185729

> <PUBCHEM_COMPOUND_CANONICALIZED>
1

> <PUBCHEM_CACTVS_COMPLEXITY>
812

> <PUBCHEM_CACTVS_HBOND_ACCEPTOR>
5

> <PUBCHEM_CACTVS_HBOND_DONOR>
3

> <PUBCHEM_CACTVS_ROTATABLE_BOND>
1

> <PUBCHEM_CACTVS_SUBSKEYS>
AAADcfB4OAAAAAAAAAAAAAAAAAAAASJEAAAwYMAAAAAAAEjBgAAAGgAACAAADxSgmAIyBIAABkCIAihSgAACCAAkIAAIiAEGCMgNNhIENQqCWSClwBELKYPI6PyPgAAAAAAAAADAAAYQADCAAAAAAAAAAA==

> <PUBCHEM_IUPAC_OPENEYE_NAME>
6-(3-furyl)-1,5,10,15-tetramethyl-13-oxapentacyclo[10.6.1.02,10.05,9.015,19]nonadec-8-ene-11,16,18-triol

> <PUBCHEM_IUPAC_CAS_NAME>
6-(3-furanyl)-1,5,10,15-tetramethyl-13-oxapentacyclo[10.6.1.02,10.05,9.015,19]nonadec-8-ene-11,16,18-triol

> <PUBCHEM_IUPAC_NAME_MARKUP>
6-(furan-3-yl)-1,5,10,15-tetramethyl-13-oxapentacyclo[10.6.1.0<SUP>2,10</SUP>.0<SUP>5,9</SUP>.0<SUP>15,19</SUP>]nonadec-8-ene-11,16,18-triol

> <PUBCHEM_IUPAC_NAME>
6-(furan-3-yl)-1,5,10,15-tetramethyl-13-oxapentacyclo[10.6.1.02,10.05,9.015,19]nonadec-8-ene-11,16,18-triol

> <PUBCHEM_IUPAC_SYSTEMATIC_NAME>
6-(furan-3-yl)-1,5,10,15-tetramethyl-13-oxapentacyclo[10.6.1.02,10.05,9.015,19]nonadec-8-ene-11,16,18-triol

> <PUBCHEM_IUPAC_TRADITIONAL_NAME>
6-(3-furyl)-1,5,10,15-tetramethyl-13-oxapentacyclo[10.6.1.02,10.05,9.015,19]nonadec-8-ene-11,16,18-triol

> <PUBCHEM_IUPAC_INCHI>
InChI=1S/C26H36O5/c1-23-9-7-17-25(3,16(23)6-5-15(23)14-8-10-30-12-14)22(29)20-21-24(2,13-31-20)18(27)11-19(28)26(17,21)4/h6,8,10,12,15,17-22,27-29H,5,7,9,11,13H2,1-4H3

> <PUBCHEM_IUPAC_INCHIKEY>
ISOLELCWKGNNOX-UHFFFAOYSA-N

> <PUBCHEM_XLOGP3_AA>
3.1

> <PUBCHEM_EXACT_MASS>
428.256274

> <PUBCHEM_MOLECULAR_FORMULA>
C26H36O5

> <PUBCHEM_MOLECULAR_WEIGHT>
428.6

> <PUBCHEM_OPENEYE_CAN_SMILES>
CC12CCC3C4(C(CC(C5(C4C(C(C3(C1=CCC2C6=COC=C6)C)O)OC5)C)O)O)C

> <PUBCHEM_OPENEYE_ISO_SMILES>
CC12CCC3C4(C(CC(C5(C4C(C(C3(C1=CCC2C6=COC=C6)C)O)OC5)C)O)O)C

> <PUBCHEM_CACTVS_TPSA>
83.1

> <PUBCHEM_MONOISOTOPIC_WEIGHT>
428.256274

> <PUBCHEM_TOTAL_CHARGE>
0

> <PUBCHEM_HEAVY_ATOM_COUNT>
31

> <PUBCHEM_ATOM_DEF_STEREO_COUNT>
0

> <PUBCHEM_ATOM_UDEF_STEREO_COUNT>
11

> <PUBCHEM_BOND_DEF_STEREO_COUNT>
0

> <PUBCHEM_BOND_UDEF_STEREO_COUNT>
0

> <PUBCHEM_ISOTOPIC_ATOM_COUNT>
0

> <PUBCHEM_COMPONENT_COUNT>
1

> <PUBCHEM_CACTVS_TAUTO_COUNT>
-1

> <PUBCHEM_COORDINATE_TYPE>
1
5
255

> <PUBCHEM_BONDANNOTATIONS>
11  1  3
10  24  3
14  27  3
12  2  3
23  28  3
28  29  8
28  30  8
29  31  8
13  3  3
17  4  3
5  30  8
5  31  8
6  21  3
7  11  3
8  16  3
9  22  3

$$$$
