6443004
  -OEChem-11202008162D

 93 99  0     1  0  0  0  0  0999 V2000
    7.8521   -1.6488    0.0000 O   0  0  0  0  0  0  0  0  0  0  0  0
    8.1002    0.6295    0.0000 O   0  0  0  0  0  0  0  0  0  0  0  0
    3.7319   -0.8673    0.0000 O   0  0  0  0  0  0  0  0  0  0  0  0
    5.4900   -3.9397    0.0000 O   0  0  0  0  0  0  0  0  0  0  0  0
    3.6562    4.7810    0.0000 O   0  0  0  0  0  0  0  0  0  0  0  0
    8.9662   -0.8705    0.0000 O   0  0  0  0  0  0  0  0  0  0  0  0
    2.8486   -2.3572    0.0000 O   0  0  0  0  0  0  0  0  0  0  0  0
    3.7580   -3.9464    0.0000 O   0  0  0  0  0  0  0  0  0  0  0  0
    5.5021   -0.8705    0.0000 C   0  0  3  0  0  0  0  0  0  0  0  0
    6.3682   -1.3705    0.0000 C   0  0  3  0  0  0  0  0  0  0  0  0
    5.5021    0.1295    0.0000 C   0  0  3  0  0  0  0  0  0  0  0  0
    6.3682    0.6295    0.0000 C   0  0  3  0  0  0  0  0  0  0  0  0
    6.3842   -2.4120    0.0000 C   0  0  3  0  0  0  0  0  0  0  0  0
    7.2342   -0.8705    0.0000 C   0  0  3  0  0  0  0  0  0  0  0  0
    7.2342    0.1295    0.0000 C   0  0  3  0  0  0  0  0  0  0  0  0
    4.5921   -1.3773    0.0000 C   0  0  3  0  0  0  0  0  0  0  0  0
    4.5921    0.6364    0.0000 C   0  0  0  0  0  0  0  0  0  0  0  0
    6.3842    1.6710    0.0000 C   0  0  0  0  0  0  0  0  0  0  0  0
    5.4862    2.1988    0.0000 C   0  0  3  0  0  0  0  0  0  0  0  0
    5.4862   -2.9397    0.0000 C   0  0  3  0  0  0  0  0  0  0  0  0
    7.3722   -2.5191    0.0000 C   0  0  0  0  0  0  0  0  0  0  0  0
    4.5841   -2.4189    0.0000 C   0  0  0  0  0  0  0  0  0  0  0  0
    4.5841    1.6780    0.0000 C   0  0  0  0  0  0  0  0  0  0  0  0
    4.6361   -0.3705    0.0000 C   0  0  0  0  0  0  0  0  0  0  0  0
    7.2342    1.1295    0.0000 C   0  0  0  0  0  0  0  0  0  0  0  0
    5.7119    3.2093    0.0000 C   0  0  3  0  0  0  0  0  0  0  0  0
    6.8942   -3.2722    0.0000 C   0  0  0  0  0  0  0  0  0  0  0  0
    7.1572    2.3599    0.0000 C   0  0  0  0  0  0  0  0  0  0  0  0
    6.7426    3.3087    0.0000 C   0  0  0  0  0  0  0  0  0  0  0  0
    4.6240    2.7054    0.0000 C   0  0  0  0  0  0  0  0  0  0  0  0
    5.0498    3.9588    0.0000 C   0  0  0  0  0  0  0  0  0  0  0  0
    8.9662    0.1295    0.0000 C   0  0  0  0  0  0  0  0  0  0  0  0
    2.8602   -1.3573    0.0000 C   0  0  0  0  0  0  0  0  0  0  0  0
    4.6259   -4.4431    0.0000 C   0  0  0  0  0  0  0  0  0  0  0  0
    5.2669    4.9349    0.0000 C   0  0  0  0  0  0  0  0  0  0  0  0
    4.0543    3.8636    0.0000 C   0  0  0  0  0  0  0  0  0  0  0  0
    2.0000   -0.8473    0.0000 C   0  0  0  0  0  0  0  0  0  0  0  0
    9.8322    0.6295    0.0000 C   0  0  0  0  0  0  0  0  0  0  0  0
    4.4057    5.4431    0.0000 C   0  0  0  0  0  0  0  0  0  0  0  0
    4.6298   -5.4431    0.0000 C   0  0  0  0  0  0  0  0  0  0  0  0
   10.6983    0.1295    0.0000 C   0  0  0  0  0  0  0  0  0  0  0  0
   11.5643    0.6295    0.0000 C   0  0  0  0  0  0  0  0  0  0  0  0
   12.4303    0.1295    0.0000 C   0  0  0  0  0  0  0  0  0  0  0  0
   11.5643    1.6295    0.0000 C   0  0  0  0  0  0  0  0  0  0  0  0
   13.2964    0.6295    0.0000 C   0  0  0  0  0  0  0  0  0  0  0  0
   12.4303    2.1295    0.0000 C   0  0  0  0  0  0  0  0  0  0  0  0
   13.2964    1.6295    0.0000 C   0  0  0  0  0  0  0  0  0  0  0  0
    5.8336   -1.6846    0.0000 H   0  0  0  0  0  0  0  0  0  0  0  0
    6.0391   -0.1805    0.0000 H   0  0  0  0  0  0  0  0  0  0  0  0
    7.8196   -0.6664    0.0000 H   0  0  0  0  0  0  0  0  0  0  0  0
    7.7711   -0.1805    0.0000 H   0  0  0  0  0  0  0  0  0  0  0  0
    4.0522   -1.6821    0.0000 H   0  0  0  0  0  0  0  0  0  0  0  0
    3.9805    0.7377    0.0000 H   0  0  0  0  0  0  0  0  0  0  0  0
    4.3876    0.0511    0.0000 H   0  0  0  0  0  0  0  0  0  0  0  0
    6.0249   -3.2466    0.0000 H   0  0  0  0  0  0  0  0  0  0  0  0
    7.2249   -3.1214    0.0000 H   0  0  0  0  0  0  0  0  0  0  0  0
    7.9498   -2.7445    0.0000 H   0  0  0  0  0  0  0  0  0  0  0  0
    3.9741   -2.3081    0.0000 H   0  0  0  0  0  0  0  0  0  0  0  0
    4.3705   -3.0010    0.0000 H   0  0  0  0  0  0  0  0  0  0  0  0
    4.3705    2.2600    0.0000 H   0  0  0  0  0  0  0  0  0  0  0  0
    3.9741    1.5672    0.0000 H   0  0  0  0  0  0  0  0  0  0  0  0
    4.9461    0.1665    0.0000 H   0  0  0  0  0  0  0  0  0  0  0  0
    4.0992   -0.0605    0.0000 H   0  0  0  0  0  0  0  0  0  0  0  0
    4.3261   -0.9074    0.0000 H   0  0  0  0  0  0  0  0  0  0  0  0
    7.5442    0.5926    0.0000 H   0  0  0  0  0  0  0  0  0  0  0  0
    7.7711    1.4395    0.0000 H   0  0  0  0  0  0  0  0  0  0  0  0
    6.9242    1.6664    0.0000 H   0  0  0  0  0  0  0  0  0  0  0  0
    5.9393    3.7861    0.0000 H   0  0  0  0  0  0  0  0  0  0  0  0
    6.3609   -3.5884    0.0000 H   0  0  0  0  0  0  0  0  0  0  0  0
    7.2104   -3.8055    0.0000 H   0  0  0  0  0  0  0  0  0  0  0  0
    7.4275   -2.9560    0.0000 H   0  0  0  0  0  0  0  0  0  0  0  0
    7.7629    2.2274    0.0000 H   0  0  0  0  0  0  0  0  0  0  0  0
    7.3336    3.4960    0.0000 H   0  0  0  0  0  0  0  0  0  0  0  0
    6.6185    3.9162    0.0000 H   0  0  0  0  0  0  0  0  0  0  0  0
    4.9382    3.2400    0.0000 H   0  0  0  0  0  0  0  0  0  0  0  0
    4.0895    3.0196    0.0000 H   0  0  0  0  0  0  0  0  0  0  0  0
    4.3099    2.1709    0.0000 H   0  0  0  0  0  0  0  0  0  0  0  0
    5.8357    5.1817    0.0000 H   0  0  0  0  0  0  0  0  0  0  0  0
    3.7393    3.3296    0.0000 H   0  0  0  0  0  0  0  0  0  0  0  0
    2.3162   -0.3140    0.0000 H   0  0  0  0  0  0  0  0  0  0  0  0
    1.4667   -0.5311    0.0000 H   0  0  0  0  0  0  0  0  0  0  0  0
    1.6838   -1.3806    0.0000 H   0  0  0  0  0  0  0  0  0  0  0  0
    9.8322    1.2495    0.0000 H   0  0  0  0  0  0  0  0  0  0  0  0
    4.3467    6.0602    0.0000 H   0  0  0  0  0  0  0  0  0  0  0  0
    4.0098   -5.4454    0.0000 H   0  0  0  0  0  0  0  0  0  0  0  0
    4.6322   -6.0631    0.0000 H   0  0  0  0  0  0  0  0  0  0  0  0
    5.2498   -5.4407    0.0000 H   0  0  0  0  0  0  0  0  0  0  0  0
   10.6983   -0.4905    0.0000 H   0  0  0  0  0  0  0  0  0  0  0  0
   12.4303   -0.4905    0.0000 H   0  0  0  0  0  0  0  0  0  0  0  0
   11.0274    1.9395    0.0000 H   0  0  0  0  0  0  0  0  0  0  0  0
   13.8333    0.3195    0.0000 H   0  0  0  0  0  0  0  0  0  0  0  0
   12.4303    2.7495    0.0000 H   0  0  0  0  0  0  0  0  0  0  0  0
   13.8333    1.9395    0.0000 H   0  0  0  0  0  0  0  0  0  0  0  0
  1 14  1  0  0  0  0
  1 21  1  0  0  0  0
  2 15  1  0  0  0  0
  2 32  1  0  0  0  0
  3 16  1  0  0  0  0
  3 33  1  0  0  0  0
  4 20  1  0  0  0  0
  4 34  1  0  0  0  0
  5 36  1  0  0  0  0
  5 39  1  0  0  0  0
  6 32  2  0  0  0  0
  7 33  2  0  0  0  0
  8 34  2  0  0  0  0
  9 10  1  0  0  0  0
  9 11  1  0  0  0  0
  9 16  1  0  0  0  0
  9 24  1  0  0  0  0
 10 13  1  0  0  0  0
 10 14  1  0  0  0  0
 10 48  1  0  0  0  0
 11 12  1  0  0  0  0
 11 17  1  0  0  0  0
 11 49  1  0  0  0  0
 12 15  1  0  0  0  0
 12 18  1  0  0  0  0
 12 25  1  0  0  0  0
 13 20  1  0  0  0  0
 13 21  1  0  0  0  0
 13 27  1  0  0  0  0
 14 15  1  0  0  0  0
 14 50  1  0  0  0  0
 15 51  1  0  0  0  0
 16 22  1  0  0  0  0
 16 52  1  0  0  0  0
 17 23  1  0  0  0  0
 17 53  1  0  0  0  0
 17 54  1  0  0  0  0
 18 19  1  0  0  0  0
 18 28  2  0  0  0  0
 19 23  1  0  0  0  0
 19 26  1  0  0  0  0
 19 30  1  0  0  0  0
 20 22  1  0  0  0  0
 20 55  1  0  0  0  0
 21 56  1  0  0  0  0
 21 57  1  0  0  0  0
 22 58  1  0  0  0  0
 22 59  1  0  0  0  0
 23 60  1  0  0  0  0
 23 61  1  0  0  0  0
 24 62  1  0  0  0  0
 24 63  1  0  0  0  0
 24 64  1  0  0  0  0
 25 65  1  0  0  0  0
 25 66  1  0  0  0  0
 25 67  1  0  0  0  0
 26 29  1  0  0  0  0
 26 31  1  0  0  0  0
 26 68  1  0  0  0  0
 27 69  1  0  0  0  0
 27 70  1  0  0  0  0
 27 71  1  0  0  0  0
 28 29  1  0  0  0  0
 28 72  1  0  0  0  0
 29 73  1  0  0  0  0
 29 74  1  0  0  0  0
 30 75  1  0  0  0  0
 30 76  1  0  0  0  0
 30 77  1  0  0  0  0
 31 35  1  0  0  0  0
 31 36  2  0  0  0  0
 32 38  1  0  0  0  0
 33 37  1  0  0  0  0
 34 40  1  0  0  0  0
 35 39  2  0  0  0  0
 35 78  1  0  0  0  0
 36 79  1  0  0  0  0
 37 80  1  0  0  0  0
 37 81  1  0  0  0  0
 37 82  1  0  0  0  0
 38 41  2  0  0  0  0
 38 83  1  0  0  0  0
 39 84  1  0  0  0  0
 40 85  1  0  0  0  0
 40 86  1  0  0  0  0
 40 87  1  0  0  0  0
 41 42  1  0  0  0  0
 41 88  1  0  0  0  0
 42 43  2  0  0  0  0
 42 44  1  0  0  0  0
 43 45  1  0  0  0  0
 43 89  1  0  0  0  0
 44 46  2  0  0  0  0
 44 90  1  0  0  0  0
 45 47  2  0  0  0  0
 45 91  1  0  0  0  0
 46 47  1  0  0  0  0
 46 92  1  0  0  0  0
 47 93  1  0  0  0  0
M  END
> <PUBCHEM_COMPOUND_CID>
6443004

> <PUBCHEM_COMPOUND_CANONICALIZED>
1

> <PUBCHEM_CACTVS_COMPLEXITY>
1330

> <PUBCHEM_CACTVS_HBOND_ACCEPTOR>
8

> <PUBCHEM_CACTVS_HBOND_DONOR>
0

> <PUBCHEM_CACTVS_ROTATABLE_BOND>
9

> <PUBCHEM_CACTVS_SUBSKEYS>
AAADcfB8PAAAAAAAAAAAAAAAAAAAASJEAAAwYMGAAAAAAEjBwAAAGgAAAAAADxSgmAIyDIAABECIAijSiAACCAAkIAAIiAEGCMgNJjKENRqCOSClwBEKqYfI6PyPgAAAAAAAAADAAAYQADCAAAAAAAAAAA==

> <PUBCHEM_IUPAC_OPENEYE_NAME>
[16,18-diacetoxy-6-(3-furyl)-1,5,10,15-tetramethyl-13-oxapentacyclo[10.6.1.02,10.05,9.015,19]nonadec-8-en-11-yl] (E)-3-phenylprop-2-enoate

> <PUBCHEM_IUPAC_CAS_NAME>
(E)-3-phenyl-2-propenoic acid [16,18-diacetyloxy-6-(3-furanyl)-1,5,10,15-tetramethyl-13-oxapentacyclo[10.6.1.02,10.05,9.015,19]nonadec-8-en-11-yl] ester

> <PUBCHEM_IUPAC_NAME_MARKUP>
[16,18-diacetyloxy-6-(furan-3-yl)-1,5,10,15-tetramethyl-13-oxapentacyclo[10.6.1.0<SUP>2,10</SUP>.0<SUP>5,9</SUP>.0<SUP>15,19</SUP>]nonadec-8-en-11-yl] (<I>E</I>)-3-phenylprop-2-enoate

> <PUBCHEM_IUPAC_NAME>
[16,18-diacetyloxy-6-(furan-3-yl)-1,5,10,15-tetramethyl-13-oxapentacyclo[10.6.1.02,10.05,9.015,19]nonadec-8-en-11-yl] (E)-3-phenylprop-2-enoate

> <PUBCHEM_IUPAC_SYSTEMATIC_NAME>
[16,18-diacetyloxy-6-(furan-3-yl)-1,5,10,15-tetramethyl-13-oxapentacyclo[10.6.1.02,10.05,9.015,19]nonadec-8-en-11-yl] (E)-3-phenylprop-2-enoate

> <PUBCHEM_IUPAC_TRADITIONAL_NAME>
(E)-3-phenylacrylic acid [16,18-diacetoxy-6-(3-furyl)-1,5,10,15-tetramethyl-13-oxapentacyclo[10.6.1.02,10.05,9.015,19]nonadec-8-en-11-yl] ester

> <PUBCHEM_IUPAC_INCHI>
InChI=1S/C39H46O8/c1-23(40)45-30-20-31(46-24(2)41)39(6)29-16-18-36(3)27(26-17-19-43-21-26)13-14-28(36)38(29,5)35(33-34(39)37(30,4)22-44-33)47-32(42)15-12-25-10-8-7-9-11-25/h7-12,14-15,17,19,21,27,29-31,33-35H,13,16,18,20,22H2,1-6H3/b15-12+

> <PUBCHEM_IUPAC_INCHIKEY>
GQNAMBZGINRMBH-NTCAYCPXSA-N

> <PUBCHEM_XLOGP3_AA>
6.9

> <PUBCHEM_EXACT_MASS>
642.319268

> <PUBCHEM_MOLECULAR_FORMULA>
C39H46O8

> <PUBCHEM_MOLECULAR_WEIGHT>
642.8

> <PUBCHEM_OPENEYE_CAN_SMILES>
CC(=O)OC1CC(C2(C3CCC4(C(CC=C4C3(C(C5C2C1(CO5)C)OC(=O)C=CC6=CC=CC=C6)C)C7=COC=C7)C)C)OC(=O)C

> <PUBCHEM_OPENEYE_ISO_SMILES>
CC(=O)OC1CC(C2(C3CCC4(C(CC=C4C3(C(C5C2C1(CO5)C)OC(=O)/C=C/C6=CC=CC=C6)C)C7=COC=C7)C)C)OC(=O)C

> <PUBCHEM_CACTVS_TPSA>
101

> <PUBCHEM_MONOISOTOPIC_WEIGHT>
642.319268

> <PUBCHEM_TOTAL_CHARGE>
0

> <PUBCHEM_HEAVY_ATOM_COUNT>
47

> <PUBCHEM_ATOM_DEF_STEREO_COUNT>
0

> <PUBCHEM_ATOM_UDEF_STEREO_COUNT>
11

> <PUBCHEM_BOND_DEF_STEREO_COUNT>
1

> <PUBCHEM_BOND_UDEF_STEREO_COUNT>
0

> <PUBCHEM_ISOTOPIC_ATOM_COUNT>
0

> <PUBCHEM_COMPONENT_COUNT>
1

> <PUBCHEM_CACTVS_TAUTO_COUNT>
-1

> <PUBCHEM_COORDINATE_TYPE>
1
5
255

> <PUBCHEM_BONDANNOTATIONS>
14  1  3
10  14  3
11  17  3
12  25  3
13  27  3
19  30  3
15  2  3
26  31  3
16  3  3
31  35  8
31  36  8
35  39  8
20  4  3
42  43  8
42  44  8
43  45  8
44  46  8
45  47  8
46  47  8
5  36  8
5  39  8
9  24  3

$$$$
