100017
  -OEChem-11202008282D

 64 69  0     1  0  0  0  0  0999 V2000
    5.5711   -1.3905    0.0000 O   0  0  0  0  0  0  0  0  0  0  0  0
    3.5128   -0.0646    0.0000 O   0  0  0  0  0  0  0  0  0  0  0  0
    6.2497    3.1128    0.0000 O   0  0  0  0  0  0  0  0  0  0  0  0
    2.0000    0.8303    0.0000 O   0  0  0  0  0  0  0  0  0  0  0  0
    8.8260    1.5814    0.0000 O   0  0  0  0  0  0  0  0  0  0  0  0
    7.9599    0.0814    0.0000 O   0  0  0  0  0  0  0  0  0  0  0  0
   10.2658   -3.1506    0.0000 O   0  0  0  0  0  0  0  0  0  0  0  0
    6.2279    0.0814    0.0000 C   0  0  3  0  0  0  0  0  0  0  0  0
    4.4958    1.0814    0.0000 C   0  0  3  0  0  0  0  0  0  0  0  0
    5.3618    1.5814    0.0000 C   0  0  3  0  0  0  0  0  0  0  0  0
    6.2279    1.0814    0.0000 C   0  0  3  0  0  0  0  0  0  0  0  0
    5.3618   -0.4186    0.0000 C   0  0  3  0  0  0  0  0  0  0  0  0
    4.4958    0.0814    0.0000 C   0  0  3  0  0  0  0  0  0  0  0  0
    3.5858    1.5882    0.0000 C   0  0  3  0  0  0  0  0  0  0  0  0
    6.9649   -0.5857    0.0000 C   0  0  0  0  0  0  0  0  0  0  0  0
    6.5598   -1.4935    0.0000 C   0  0  3  0  0  0  0  0  0  0  0  0
    7.0939    0.5814    0.0000 C   0  0  0  0  0  0  0  0  0  0  0  0
    7.0939    1.5814    0.0000 C   0  0  0  0  0  0  0  0  0  0  0  0
    5.3779    2.6229    0.0000 C   0  0  0  0  0  0  0  0  0  0  0  0
    6.2279    2.0814    0.0000 C   0  0  0  0  0  0  0  0  0  0  0  0
    7.9473   -0.6924    0.0000 C   0  0  0  0  0  0  0  0  0  0  0  0
    7.2953   -2.1535    0.0000 C   0  0  0  0  0  0  0  0  0  0  0  0
    2.9990    0.7861    0.0000 C   0  0  0  0  0  0  0  0  0  0  0  0
    8.1511   -1.6594    0.0000 C   0  0  3  0  0  0  0  0  0  0  0  0
    3.5778    2.6298    0.0000 C   0  0  0  0  0  0  0  0  0  0  0  0
    2.5859    1.5767    0.0000 C   0  0  0  0  0  0  0  0  0  0  0  0
    4.4799    3.1506    0.0000 C   0  0  0  0  0  0  0  0  0  0  0  0
    8.6184    0.0490    0.0000 C   0  0  0  0  0  0  0  0  0  0  0  0
    7.9599    1.0814    0.0000 C   0  0  0  0  0  0  0  0  0  0  0  0
    9.0643   -2.0669    0.0000 C   0  0  0  0  0  0  0  0  0  0  0  0
    9.9307   -1.5676    0.0000 C   0  0  0  0  0  0  0  0  0  0  0  0
    9.2714   -3.0452    0.0000 C   0  0  0  0  0  0  0  0  0  0  0  0
   10.6733   -2.2374    0.0000 C   0  0  0  0  0  0  0  0  0  0  0  0
    9.6920    1.0814    0.0000 C   0  0  0  0  0  0  0  0  0  0  0  0
    4.4911    1.7013    0.0000 H   0  0  0  0  0  0  0  0  0  0  0  0
    6.7648    0.7714    0.0000 H   0  0  0  0  0  0  0  0  0  0  0  0
    4.8607   -0.7837    0.0000 H   0  0  0  0  0  0  0  0  0  0  0  0
    4.3799   -0.5277    0.0000 H   0  0  0  0  0  0  0  0  0  0  0  0
    6.3083   -2.0602    0.0000 H   0  0  0  0  0  0  0  0  0  0  0  0
    7.4039    0.0444    0.0000 H   0  0  0  0  0  0  0  0  0  0  0  0
    7.6308    0.8914    0.0000 H   0  0  0  0  0  0  0  0  0  0  0  0
    6.7839    1.1183    0.0000 H   0  0  0  0  0  0  0  0  0  0  0  0
    7.4924    2.0563    0.0000 H   0  0  0  0  0  0  0  0  0  0  0  0
    6.6954    2.0563    0.0000 H   0  0  0  0  0  0  0  0  0  0  0  0
    6.5379    1.5444    0.0000 H   0  0  0  0  0  0  0  0  0  0  0  0
    6.7648    2.3914    0.0000 H   0  0  0  0  0  0  0  0  0  0  0  0
    5.9179    2.6183    0.0000 H   0  0  0  0  0  0  0  0  0  0  0  0
    6.8350   -2.5689    0.0000 H   0  0  0  0  0  0  0  0  0  0  0  0
    7.6600   -2.6548    0.0000 H   0  0  0  0  0  0  0  0  0  0  0  0
    8.6334   -1.2698    0.0000 H   0  0  0  0  0  0  0  0  0  0  0  0
    3.0397    2.9377    0.0000 H   0  0  0  0  0  0  0  0  0  0  0  0
    2.5787    2.1966    0.0000 H   0  0  0  0  0  0  0  0  0  0  0  0
    1.9659    1.5695    0.0000 H   0  0  0  0  0  0  0  0  0  0  0  0
    2.5930    0.9567    0.0000 H   0  0  0  0  0  0  0  0  0  0  0  0
    4.4823    3.7706    0.0000 H   0  0  0  0  0  0  0  0  0  0  0  0
    9.0780   -0.3671    0.0000 H   0  0  0  0  0  0  0  0  0  0  0  0
    9.0344    0.5087    0.0000 H   0  0  0  0  0  0  0  0  0  0  0  0
    8.1587    0.4650    0.0000 H   0  0  0  0  0  0  0  0  0  0  0  0
    9.9961   -0.9511    0.0000 H   0  0  0  0  0  0  0  0  0  0  0  0
    8.8561   -3.5056    0.0000 H   0  0  0  0  0  0  0  0  0  0  0  0
   11.2799   -2.1090    0.0000 H   0  0  0  0  0  0  0  0  0  0  0  0
    9.3820    0.5444    0.0000 H   0  0  0  0  0  0  0  0  0  0  0  0
   10.2289    0.7714    0.0000 H   0  0  0  0  0  0  0  0  0  0  0  0
   10.0020    1.6183    0.0000 H   0  0  0  0  0  0  0  0  0  0  0  0
  1 12  1  0  0  0  0
  1 16  1  0  0  0  0
  2 13  1  0  0  0  0
  2 23  1  0  0  0  0
  3 19  2  0  0  0  0
  4 23  2  0  0  0  0
  5 29  1  0  0  0  0
  5 34  1  0  0  0  0
  6 29  2  0  0  0  0
  7 32  1  0  0  0  0
  7 33  1  0  0  0  0
  8 11  1  0  0  0  0
  8 12  1  0  0  0  0
  8 15  1  0  0  0  0
  8 17  1  0  0  0  0
  9 10  1  0  0  0  0
  9 13  1  0  0  0  0
  9 14  1  0  0  0  0
  9 35  1  0  0  0  0
 10 11  1  0  0  0  0
 10 19  1  0  0  0  0
 10 20  1  0  0  0  0
 11 18  1  0  0  0  0
 11 36  1  0  0  0  0
 12 13  1  0  0  0  0
 12 37  1  0  0  0  0
 13 38  1  0  0  0  0
 14 23  1  0  0  0  0
 14 25  1  0  0  0  0
 14 26  1  0  0  0  0
 15 16  1  0  0  0  0
 15 21  2  0  0  0  0
 16 22  1  0  0  0  0
 16 39  1  0  0  0  0
 17 40  1  0  0  0  0
 17 41  1  0  0  0  0
 17 42  1  0  0  0  0
 18 29  1  0  0  0  0
 18 43  1  0  0  0  0
 18 44  1  0  0  0  0
 19 27  1  0  0  0  0
 20 45  1  0  0  0  0
 20 46  1  0  0  0  0
 20 47  1  0  0  0  0
 21 24  1  0  0  0  0
 21 28  1  0  0  0  0
 22 24  1  0  0  0  0
 22 48  1  0  0  0  0
 22 49  1  0  0  0  0
 24 30  1  0  0  0  0
 24 50  1  0  0  0  0
 25 27  2  0  0  0  0
 25 51  1  0  0  0  0
 26 52  1  0  0  0  0
 26 53  1  0  0  0  0
 26 54  1  0  0  0  0
 27 55  1  0  0  0  0
 28 56  1  0  0  0  0
 28 57  1  0  0  0  0
 28 58  1  0  0  0  0
 30 31  1  0  0  0  0
 30 32  2  0  0  0  0
 31 33  2  0  0  0  0
 31 59  1  0  0  0  0
 32 60  1  0  0  0  0
 33 61  1  0  0  0  0
 34 62  1  0  0  0  0
 34 63  1  0  0  0  0
 34 64  1  0  0  0  0
M  END
> <PUBCHEM_COMPOUND_CID>
100017

> <PUBCHEM_COMPOUND_CANONICALIZED>
1

> <PUBCHEM_CACTVS_COMPLEXITY>
1040

> <PUBCHEM_CACTVS_HBOND_ACCEPTOR>
7

> <PUBCHEM_CACTVS_HBOND_DONOR>
0

> <PUBCHEM_CACTVS_ROTATABLE_BOND>
4

> <PUBCHEM_CACTVS_SUBSKEYS>
AAADceB4OAAAAAAAAAAAAAAAAAAAASJEiAAwQAAAAAAQAEiBgAAAGgAAAAAADxSgmAIyDIAABECIAqjSiAACCAAkIAAIiAEGCMgNJhIENQqCGSCkwBEKKYOK7vzvgAAAAAAAAADAAAYAADCAAAAAAAAAAA==

> <PUBCHEM_IUPAC_OPENEYE_NAME>
methyl 2-[6-(3-furyl)-7,9,11,15-tetramethyl-12,16-dioxo-3,17-dioxapentacyclo[9.6.1.02,9.04,8.015,18]octadeca-7,13-dien-10-yl]acetate

> <PUBCHEM_IUPAC_CAS_NAME>
2-[6-(3-furanyl)-7,9,11,15-tetramethyl-12,16-dioxo-3,17-dioxapentacyclo[9.6.1.02,9.04,8.015,18]octadeca-7,13-dien-10-yl]acetic acid methyl ester

> <PUBCHEM_IUPAC_NAME_MARKUP>
methyl 2-[6-(furan-3-yl)-7,9,11,15-tetramethyl-12,16-dioxo-3,17-dioxapentacyclo[9.6.1.0<SUP>2,9</SUP>.0<SUP>4,8</SUP>.0<SUP>15,18</SUP>]octadeca-7,13-dien-10-yl]acetate

> <PUBCHEM_IUPAC_NAME>
methyl 2-[6-(furan-3-yl)-7,9,11,15-tetramethyl-12,16-dioxo-3,17-dioxapentacyclo[9.6.1.02,9.04,8.015,18]octadeca-7,13-dien-10-yl]acetate

> <PUBCHEM_IUPAC_SYSTEMATIC_NAME>
methyl 2-[6-(furan-3-yl)-7,9,11,15-tetramethyl-12,16-bis(oxidanylidene)-3,17-dioxapentacyclo[9.6.1.02,9.04,8.015,18]octadeca-7,13-dien-10-yl]ethanoate

> <PUBCHEM_IUPAC_TRADITIONAL_NAME>
2-[6-(3-furyl)-12,16-diketo-7,9,11,15-tetramethyl-3,17-dioxapentacyclo[9.6.1.02,9.04,8.015,18]octadeca-7,13-dien-10-yl]acetic acid methyl ester

> <PUBCHEM_IUPAC_INCHI>
InChI=1S/C27H30O7/c1-13-15(14-7-9-32-12-14)10-16-20(13)27(4)17(11-19(29)31-5)26(3)18(28)6-8-25(2)22(26)21(23(27)33-16)34-24(25)30/h6-9,12,15-17,21-23H,10-11H2,1-5H3

> <PUBCHEM_IUPAC_INCHIKEY>
JZIQWNPPBKFOPT-UHFFFAOYSA-N

> <PUBCHEM_XLOGP3_AA>
2.2

> <PUBCHEM_EXACT_MASS>
466.199153

> <PUBCHEM_MOLECULAR_FORMULA>
C27H30O7

> <PUBCHEM_MOLECULAR_WEIGHT>
466.5

> <PUBCHEM_OPENEYE_CAN_SMILES>
CC1=C2C(CC1C3=COC=C3)OC4C2(C(C5(C6C4OC(=O)C6(C=CC5=O)C)C)CC(=O)OC)C

> <PUBCHEM_OPENEYE_ISO_SMILES>
CC1=C2C(CC1C3=COC=C3)OC4C2(C(C5(C6C4OC(=O)C6(C=CC5=O)C)C)CC(=O)OC)C

> <PUBCHEM_CACTVS_TPSA>
92

> <PUBCHEM_MONOISOTOPIC_WEIGHT>
466.199153

> <PUBCHEM_TOTAL_CHARGE>
0

> <PUBCHEM_HEAVY_ATOM_COUNT>
34

> <PUBCHEM_ATOM_DEF_STEREO_COUNT>
0

> <PUBCHEM_ATOM_UDEF_STEREO_COUNT>
9

> <PUBCHEM_BOND_DEF_STEREO_COUNT>
0

> <PUBCHEM_BOND_UDEF_STEREO_COUNT>
0

> <PUBCHEM_ISOTOPIC_ATOM_COUNT>
0

> <PUBCHEM_COMPONENT_COUNT>
1

> <PUBCHEM_CACTVS_TAUTO_COUNT>
-1

> <PUBCHEM_COORDINATE_TYPE>
1
5
255

> <PUBCHEM_BONDANNOTATIONS>
12  1  3
10  20  3
11  18  3
14  26  3
16  22  3
13  2  3
24  30  3
30  31  8
30  32  8
31  33  8
7  32  8
7  33  8
8  17  3
9  13  3

$$$$
