169088
  -OEChem-11202008192D

 66 71  0     1  0  0  0  0  0999 V2000
    6.6606   -2.2445    0.0000 O   0  0  0  0  0  0  0  0  0  0  0  0
    6.9088    0.0339    0.0000 O   0  0  0  0  0  0  0  0  0  0  0  0
    2.5405   -1.4630    0.0000 O   0  0  0  0  0  0  0  0  0  0  0  0
    4.2986   -4.5354    0.0000 O   0  0  0  0  0  0  0  0  0  0  0  0
    2.5247    1.5790    0.0000 O   0  0  0  0  0  0  0  0  0  0  0  0
    2.4648    4.1854    0.0000 O   0  0  0  0  0  0  0  0  0  0  0  0
    4.3107   -1.4661    0.0000 C   0  0  3  0  0  0  0  0  0  0  0  0
    5.1767   -1.9661    0.0000 C   0  0  3  0  0  0  0  0  0  0  0  0
    4.3107   -0.4661    0.0000 C   0  0  3  0  0  0  0  0  0  0  0  0
    5.1767    0.0339    0.0000 C   0  0  3  0  0  0  0  0  0  0  0  0
    5.1928   -3.0076    0.0000 C   0  0  3  0  0  0  0  0  0  0  0  0
    6.0427   -1.4661    0.0000 C   0  0  3  0  0  0  0  0  0  0  0  0
    6.0427   -0.4661    0.0000 C   0  0  3  0  0  0  0  0  0  0  0  0
    3.4007   -1.9730    0.0000 C   0  0  3  0  0  0  0  0  0  0  0  0
    4.2947   -3.5354    0.0000 C   0  0  3  0  0  0  0  0  0  0  0  0
    5.1928    1.0754    0.0000 C   0  0  0  0  0  0  0  0  0  0  0  0
    3.4007    0.0407    0.0000 C   0  0  0  0  0  0  0  0  0  0  0  0
    6.1808   -3.1148    0.0000 C   0  0  0  0  0  0  0  0  0  0  0  0
    4.2947    1.6032    0.0000 C   0  0  3  0  0  0  0  0  0  0  0  0
    3.3926   -3.0146    0.0000 C   0  0  0  0  0  0  0  0  0  0  0  0
    3.4446   -0.9661    0.0000 C   0  0  0  0  0  0  0  0  0  0  0  0
    6.0427    0.5339    0.0000 C   0  0  0  0  0  0  0  0  0  0  0  0
    5.7027   -3.8678    0.0000 C   0  0  0  0  0  0  0  0  0  0  0  0
    3.3926    1.0823    0.0000 C   0  0  0  0  0  0  0  0  0  0  0  0
    4.5204    2.6137    0.0000 C   0  0  3  0  0  0  0  0  0  0  0  0
    5.9658    1.7643    0.0000 C   0  0  0  0  0  0  0  0  0  0  0  0
    5.5511    2.7131    0.0000 C   0  0  0  0  0  0  0  0  0  0  0  0
    3.4326    2.1098    0.0000 C   0  0  0  0  0  0  0  0  0  0  0  0
    3.8583    3.3631    0.0000 C   0  0  0  0  0  0  0  0  0  0  0  0
    4.0755    4.3393    0.0000 C   0  0  0  0  0  0  0  0  0  0  0  0
    2.8629    3.2680    0.0000 C   0  0  0  0  0  0  0  0  0  0  0  0
    3.2142    4.8474    0.0000 C   0  0  0  0  0  0  0  0  0  0  0  0
    4.6422   -2.2802    0.0000 H   0  0  0  0  0  0  0  0  0  0  0  0
    4.8476   -0.7761    0.0000 H   0  0  0  0  0  0  0  0  0  0  0  0
    6.6282   -1.2620    0.0000 H   0  0  0  0  0  0  0  0  0  0  0  0
    6.5797   -0.7761    0.0000 H   0  0  0  0  0  0  0  0  0  0  0  0
    2.8608   -2.2778    0.0000 H   0  0  0  0  0  0  0  0  0  0  0  0
    4.8334   -3.8423    0.0000 H   0  0  0  0  0  0  0  0  0  0  0  0
    2.7890    0.1421    0.0000 H   0  0  0  0  0  0  0  0  0  0  0  0
    3.1961   -0.5446    0.0000 H   0  0  0  0  0  0  0  0  0  0  0  0
    6.0334   -3.7170    0.0000 H   0  0  0  0  0  0  0  0  0  0  0  0
    6.7584   -3.3401    0.0000 H   0  0  0  0  0  0  0  0  0  0  0  0
    2.7826   -2.9038    0.0000 H   0  0  0  0  0  0  0  0  0  0  0  0
    3.1791   -3.5966    0.0000 H   0  0  0  0  0  0  0  0  0  0  0  0
    3.7546   -0.4292    0.0000 H   0  0  0  0  0  0  0  0  0  0  0  0
    2.9077   -0.6561    0.0000 H   0  0  0  0  0  0  0  0  0  0  0  0
    3.1346   -1.5030    0.0000 H   0  0  0  0  0  0  0  0  0  0  0  0
    6.3527   -0.0030    0.0000 H   0  0  0  0  0  0  0  0  0  0  0  0
    6.5797    0.8439    0.0000 H   0  0  0  0  0  0  0  0  0  0  0  0
    5.7327    1.0708    0.0000 H   0  0  0  0  0  0  0  0  0  0  0  0
    5.1694   -4.1840    0.0000 H   0  0  0  0  0  0  0  0  0  0  0  0
    6.0189   -4.4011    0.0000 H   0  0  0  0  0  0  0  0  0  0  0  0
    6.2360   -3.5516    0.0000 H   0  0  0  0  0  0  0  0  0  0  0  0
    4.7478    3.1905    0.0000 H   0  0  0  0  0  0  0  0  0  0  0  0
    6.5715    1.6318    0.0000 H   0  0  0  0  0  0  0  0  0  0  0  0
    6.1422    2.9003    0.0000 H   0  0  0  0  0  0  0  0  0  0  0  0
    5.4271    3.3206    0.0000 H   0  0  0  0  0  0  0  0  0  0  0  0
    7.4457   -0.2761    0.0000 H   0  0  0  0  0  0  0  0  0  0  0  0
    3.7467    2.6443    0.0000 H   0  0  0  0  0  0  0  0  0  0  0  0
    2.8980    2.4239    0.0000 H   0  0  0  0  0  0  0  0  0  0  0  0
    3.1184    1.5753    0.0000 H   0  0  0  0  0  0  0  0  0  0  0  0
    2.0000   -1.7668    0.0000 H   0  0  0  0  0  0  0  0  0  0  0  0
    3.7628   -4.8474    0.0000 H   0  0  0  0  0  0  0  0  0  0  0  0
    4.6442    4.5861    0.0000 H   0  0  0  0  0  0  0  0  0  0  0  0
    2.5478    2.7340    0.0000 H   0  0  0  0  0  0  0  0  0  0  0  0
    3.1552    5.4646    0.0000 H   0  0  0  0  0  0  0  0  0  0  0  0
  1 12  1  0  0  0  0
  1 18  1  0  0  0  0
  2 13  1  0  0  0  0
  2 58  1  0  0  0  0
  3 14  1  0  0  0  0
  3 62  1  0  0  0  0
  4 15  1  0  0  0  0
  4 63  1  0  0  0  0
  5 24  2  0  0  0  0
  6 31  1  0  0  0  0
  6 32  1  0  0  0  0
  7  8  1  0  0  0  0
  7  9  1  0  0  0  0
  7 14  1  0  0  0  0
  7 21  1  0  0  0  0
  8 11  1  0  0  0  0
  8 12  1  0  0  0  0
  8 33  1  0  0  0  0
  9 10  1  0  0  0  0
  9 17  1  0  0  0  0
  9 34  1  0  0  0  0
 10 13  1  0  0  0  0
 10 16  1  0  0  0  0
 10 22  1  0  0  0  0
 11 15  1  0  0  0  0
 11 18  1  0  0  0  0
 11 23  1  0  0  0  0
 12 13  1  0  0  0  0
 12 35  1  0  0  0  0
 13 36  1  0  0  0  0
 14 20  1  0  0  0  0
 14 37  1  0  0  0  0
 15 20  1  0  0  0  0
 15 38  1  0  0  0  0
 16 19  1  0  0  0  0
 16 26  2  0  0  0  0
 17 24  1  0  0  0  0
 17 39  1  0  0  0  0
 17 40  1  0  0  0  0
 18 41  1  0  0  0  0
 18 42  1  0  0  0  0
 19 24  1  0  0  0  0
 19 25  1  0  0  0  0
 19 28  1  0  0  0  0
 20 43  1  0  0  0  0
 20 44  1  0  0  0  0
 21 45  1  0  0  0  0
 21 46  1  0  0  0  0
 21 47  1  0  0  0  0
 22 48  1  0  0  0  0
 22 49  1  0  0  0  0
 22 50  1  0  0  0  0
 23 51  1  0  0  0  0
 23 52  1  0  0  0  0
 23 53  1  0  0  0  0
 25 27  1  0  0  0  0
 25 29  1  0  0  0  0
 25 54  1  0  0  0  0
 26 27  1  0  0  0  0
 26 55  1  0  0  0  0
 27 56  1  0  0  0  0
 27 57  1  0  0  0  0
 28 59  1  0  0  0  0
 28 60  1  0  0  0  0
 28 61  1  0  0  0  0
 29 30  1  0  0  0  0
 29 31  2  0  0  0  0
 30 32  2  0  0  0  0
 30 64  1  0  0  0  0
 31 65  1  0  0  0  0
 32 66  1  0  0  0  0
M  END
> <PUBCHEM_COMPOUND_CID>
169088

> <PUBCHEM_COMPOUND_CANONICALIZED>
1

> <PUBCHEM_CACTVS_COMPLEXITY>
886

> <PUBCHEM_CACTVS_HBOND_ACCEPTOR>
6

> <PUBCHEM_CACTVS_HBOND_DONOR>
3

> <PUBCHEM_CACTVS_ROTATABLE_BOND>
1

> <PUBCHEM_CACTVS_SUBSKEYS>
AAADcfB4OAAAAAAAAAAAAAAAAAAAASJEAAAwYMAAAAAAAEjBgAAAGgAACAAADxSgmAIyBIAABkCIAqhSgAACCAAkIAAIiAEGCMgNNhIENQqCWSClwBELKYPI7vzvgAAAAAAAAADAAAYQADCAAAAAAAAAAA==

> <PUBCHEM_IUPAC_OPENEYE_NAME>
6-(3-furyl)-11,16,18-trihydroxy-1,5,10,15-tetramethyl-13-oxapentacyclo[10.6.1.02,10.05,9.015,19]nonadec-8-en-4-one

> <PUBCHEM_IUPAC_CAS_NAME>
6-(3-furanyl)-11,16,18-trihydroxy-1,5,10,15-tetramethyl-13-oxapentacyclo[10.6.1.02,10.05,9.015,19]nonadec-8-en-4-one

> <PUBCHEM_IUPAC_NAME_MARKUP>
6-(furan-3-yl)-11,16,18-trihydroxy-1,5,10,15-tetramethyl-13-oxapentacyclo[10.6.1.0<SUP>2,10</SUP>.0<SUP>5,9</SUP>.0<SUP>15,19</SUP>]nonadec-8-en-4-one

> <PUBCHEM_IUPAC_NAME>
6-(furan-3-yl)-11,16,18-trihydroxy-1,5,10,15-tetramethyl-13-oxapentacyclo[10.6.1.02,10.05,9.015,19]nonadec-8-en-4-one

> <PUBCHEM_IUPAC_SYSTEMATIC_NAME>
6-(furan-3-yl)-1,5,10,15-tetramethyl-11,16,18-tris(oxidanyl)-13-oxapentacyclo[10.6.1.02,10.05,9.015,19]nonadec-8-en-4-one

> <PUBCHEM_IUPAC_TRADITIONAL_NAME>
6-(3-furyl)-11,16,18-trihydroxy-1,5,10,15-tetramethyl-13-oxapentacyclo[10.6.1.02,10.05,9.015,19]nonadec-8-en-4-one

> <PUBCHEM_IUPAC_INCHI>
InChI=1S/C26H34O6/c1-23-12-32-20-21(23)26(4,19(29)10-17(23)27)16-9-18(28)24(2)14(13-7-8-31-11-13)5-6-15(24)25(16,3)22(20)30/h6-8,11,14,16-17,19-22,27,29-30H,5,9-10,12H2,1-4H3

> <PUBCHEM_IUPAC_INCHIKEY>
MWPUYUVXTZFYJY-UHFFFAOYSA-N

> <PUBCHEM_XLOGP3_AA>
1.5

> <PUBCHEM_EXACT_MASS>
442.235539

> <PUBCHEM_MOLECULAR_FORMULA>
C26H34O6

> <PUBCHEM_MOLECULAR_WEIGHT>
442.5

> <PUBCHEM_OPENEYE_CAN_SMILES>
CC12COC3C1C(C(CC2O)O)(C4CC(=O)C5(C(CC=C5C4(C3O)C)C6=COC=C6)C)C

> <PUBCHEM_OPENEYE_ISO_SMILES>
CC12COC3C1C(C(CC2O)O)(C4CC(=O)C5(C(CC=C5C4(C3O)C)C6=COC=C6)C)C

> <PUBCHEM_CACTVS_TPSA>
100

> <PUBCHEM_MONOISOTOPIC_WEIGHT>
442.235539

> <PUBCHEM_TOTAL_CHARGE>
0

> <PUBCHEM_HEAVY_ATOM_COUNT>
32

> <PUBCHEM_ATOM_DEF_STEREO_COUNT>
0

> <PUBCHEM_ATOM_UDEF_STEREO_COUNT>
11

> <PUBCHEM_BOND_DEF_STEREO_COUNT>
0

> <PUBCHEM_BOND_UDEF_STEREO_COUNT>
0

> <PUBCHEM_ISOTOPIC_ATOM_COUNT>
0

> <PUBCHEM_COMPONENT_COUNT>
1

> <PUBCHEM_CACTVS_TAUTO_COUNT>
-1

> <PUBCHEM_COORDINATE_TYPE>
1
5
255

> <PUBCHEM_BONDANNOTATIONS>
12  1  3
10  22  3
11  23  3
19  28  3
13  2  3
25  29  3
29  30  8
29  31  8
14  3  3
30  32  8
15  4  3
6  31  8
6  32  8
7  21  3
8  12  3
9  17  3

$$$$
