15559638
  -OEChem-09102013253D

 64 67  0     1  0  0  0  0  0999 V2000
   -5.5857   -0.8683    1.2772 O   0  0  0  0  0  0  0  0  0  0  0  0
    5.3090   -0.5096   -1.4145 O   0  0  0  0  0  0  0  0  0  0  0  0
    0.4965    0.8309   -0.3175 C   0  0  1  0  0  0  0  0  0  0  0  0
    1.8993    0.9030    0.4509 C   0  0  1  0  0  0  0  0  0  0  0  0
   -0.2142   -0.5319    0.0930 C   0  0  1  0  0  0  0  0  0  0  0  0
   -1.7255   -0.7011   -0.3849 C   0  0  2  0  0  0  0  0  0  0  0  0
    2.7471   -0.3360    0.0687 C   0  0  2  0  0  0  0  0  0  0  0  0
   -2.5164    0.5703    0.1140 C   0  0  1  0  0  0  0  0  0  0  0  0
   -0.4221    2.0148    0.0787 C   0  0  0  0  0  0  0  0  0  0  0  0
    0.6999   -1.7673   -0.1497 C   0  0  0  0  0  0  0  0  0  0  0  0
    2.8965    2.0114    0.0412 C   0  0  0  0  0  0  0  0  0  0  0  0
    2.0897   -1.6373    0.4980 C   0  0  0  0  0  0  0  0  0  0  0  0
   -1.8733    1.8771   -0.3985 C   0  0  0  0  0  0  0  0  0  0  0  0
    4.1473   -0.0394    0.6144 C   0  0  2  0  0  0  0  0  0  0  0  0
   -4.0769    0.5194   -0.0336 C   0  0  0  0  0  0  0  0  0  0  0  0
   -2.3467   -1.9361    0.3389 C   0  0  0  0  0  0  0  0  0  0  0  0
    4.2719    1.4943    0.5127 C   0  0  0  0  0  0  0  0  0  0  0  0
    0.7172    0.9271   -1.8544 C   0  0  0  0  0  0  0  0  0  0  0  0
    1.7113    1.0303    1.9999 C   0  0  0  0  0  0  0  0  0  0  0  0
   -1.8247   -0.9453   -1.9080 C   0  0  0  0  0  0  0  0  0  0  0  0
   -3.8560   -2.0702    0.1815 C   0  0  0  0  0  0  0  0  0  0  0  0
   -4.5780   -0.8036    0.5699 C   0  0  0  0  0  0  0  0  0  0  0  0
    5.2081   -0.7071   -0.2047 C   0  0  0  0  0  0  0  0  0  0  0  0
   -4.6011    0.6282   -1.4720 C   0  0  0  0  0  0  0  0  0  0  0  0
   -4.7198    1.6762    0.7735 C   0  0  0  0  0  0  0  0  0  0  0  0
    6.1464   -1.6295    0.5254 C   0  0  0  0  0  0  0  0  0  0  0  0
   -0.3156   -0.4936    1.1849 H   0  0  0  0  0  0  0  0  0  0  0  0
    2.8387   -0.3893   -1.0237 H   0  0  0  0  0  0  0  0  0  0  0  0
   -2.3555    0.5866    1.2058 H   0  0  0  0  0  0  0  0  0  0  0  0
   -0.0064    2.9574   -0.2988 H   0  0  0  0  0  0  0  0  0  0  0  0
   -0.4681    2.1186    1.1674 H   0  0  0  0  0  0  0  0  0  0  0  0
    0.8331   -1.9433   -1.2217 H   0  0  0  0  0  0  0  0  0  0  0  0
    0.2385   -2.6722    0.2575 H   0  0  0  0  0  0  0  0  0  0  0  0
    2.6587    2.9864    0.4787 H   0  0  0  0  0  0  0  0  0  0  0  0
    2.9530    2.1454   -1.0421 H   0  0  0  0  0  0  0  0  0  0  0  0
    1.9992   -1.6932    1.5885 H   0  0  0  0  0  0  0  0  0  0  0  0
    2.7087   -2.4895    0.1937 H   0  0  0  0  0  0  0  0  0  0  0  0
   -2.4113    2.7473   -0.0100 H   0  0  0  0  0  0  0  0  0  0  0  0
   -1.9353    1.9540   -1.4870 H   0  0  0  0  0  0  0  0  0  0  0  0
    4.2457   -0.3587    1.6580 H   0  0  0  0  0  0  0  0  0  0  0  0
   -2.1212   -1.8772    1.4122 H   0  0  0  0  0  0  0  0  0  0  0  0
   -1.8907   -2.8636   -0.0260 H   0  0  0  0  0  0  0  0  0  0  0  0
    5.0638    1.8303   -0.1657 H   0  0  0  0  0  0  0  0  0  0  0  0
    4.5082    1.9096    1.4997 H   0  0  0  0  0  0  0  0  0  0  0  0
    1.2709    1.8292   -2.1282 H   0  0  0  0  0  0  0  0  0  0  0  0
    1.2485    0.0677   -2.2685 H   0  0  0  0  0  0  0  0  0  0  0  0
   -0.2124    1.0119   -2.4138 H   0  0  0  0  0  0  0  0  0  0  0  0
    1.3243    2.0189    2.2684 H   0  0  0  0  0  0  0  0  0  0  0  0
    1.0368    0.2837    2.4214 H   0  0  0  0  0  0  0  0  0  0  0  0
    2.6486    0.9237    2.5542 H   0  0  0  0  0  0  0  0  0  0  0  0
   -0.9370   -1.4417   -2.3071 H   0  0  0  0  0  0  0  0  0  0  0  0
   -2.6568   -1.6000   -2.1783 H   0  0  0  0  0  0  0  0  0  0  0  0
   -1.9735   -0.0258   -2.4761 H   0  0  0  0  0  0  0  0  0  0  0  0
   -4.2071   -2.8800    0.8321 H   0  0  0  0  0  0  0  0  0  0  0  0
   -4.1466   -2.3376   -0.8379 H   0  0  0  0  0  0  0  0  0  0  0  0
   -4.2072    1.5130   -1.9813 H   0  0  0  0  0  0  0  0  0  0  0  0
   -4.3705   -0.2491   -2.0781 H   0  0  0  0  0  0  0  0  0  0  0  0
   -5.6954    0.7094   -1.4788 H   0  0  0  0  0  0  0  0  0  0  0  0
   -4.5084    2.6542    0.3306 H   0  0  0  0  0  0  0  0  0  0  0  0
   -5.8121    1.5831    0.8099 H   0  0  0  0  0  0  0  0  0  0  0  0
   -4.3637    1.6830    1.8100 H   0  0  0  0  0  0  0  0  0  0  0  0
    6.6883   -1.0699    1.2918 H   0  0  0  0  0  0  0  0  0  0  0  0
    5.5786   -2.4443    0.9813 H   0  0  0  0  0  0  0  0  0  0  0  0
    6.8678   -2.0532   -0.1788 H   0  0  0  0  0  0  0  0  0  0  0  0
  1 22  2  0  0  0  0
  2 23  2  0  0  0  0
  3  4  1  0  0  0  0
  3  5  1  0  0  0  0
  3  9  1  0  0  0  0
  3 18  1  0  0  0  0
  4  7  1  0  0  0  0
  4 11  1  0  0  0  0
  4 19  1  0  0  0  0
  5  6  1  0  0  0  0
  5 10  1  0  0  0  0
  5 27  1  0  0  0  0
  6  8  1  0  0  0  0
  6 16  1  0  0  0  0
  6 20  1  0  0  0  0
  7 12  1  0  0  0  0
  7 14  1  0  0  0  0
  7 28  1  0  0  0  0
  8 13  1  0  0  0  0
  8 15  1  0  0  0  0
  8 29  1  0  0  0  0
  9 13  1  0  0  0  0
  9 30  1  0  0  0  0
  9 31  1  0  0  0  0
 10 12  1  0  0  0  0
 10 32  1  0  0  0  0
 10 33  1  0  0  0  0
 11 17  1  0  0  0  0
 11 34  1  0  0  0  0
 11 35  1  0  0  0  0
 12 36  1  0  0  0  0
 12 37  1  0  0  0  0
 13 38  1  0  0  0  0
 13 39  1  0  0  0  0
 14 17  1  0  0  0  0
 14 23  1  0  0  0  0
 14 40  1  0  0  0  0
 15 22  1  0  0  0  0
 15 24  1  0  0  0  0
 15 25  1  0  0  0  0
 16 21  1  0  0  0  0
 16 41  1  0  0  0  0
 16 42  1  0  0  0  0
 17 43  1  0  0  0  0
 17 44  1  0  0  0  0
 18 45  1  0  0  0  0
 18 46  1  0  0  0  0
 18 47  1  0  0  0  0
 19 48  1  0  0  0  0
 19 49  1  0  0  0  0
 19 50  1  0  0  0  0
 20 51  1  0  0  0  0
 20 52  1  0  0  0  0
 20 53  1  0  0  0  0
 21 22  1  0  0  0  0
 21 54  1  0  0  0  0
 21 55  1  0  0  0  0
 23 26  1  0  0  0  0
 24 56  1  0  0  0  0
 24 57  1  0  0  0  0
 24 58  1  0  0  0  0
 25 59  1  0  0  0  0
 25 60  1  0  0  0  0
 25 61  1  0  0  0  0
 26 62  1  0  0  0  0
 26 63  1  0  0  0  0
 26 64  1  0  0  0  0
M  END
> <PUBCHEM_COMPOUND_CID>
15559638

> <PUBCHEM_CONFORMER_RMSD>
0.6

> <PUBCHEM_CONFORMER_DIVERSEORDER>
1
3
2
4

> <PUBCHEM_MMFF94_PARTIAL_CHARGES>
8
1 -0.57
14 0.06
15 0.06
2 -0.57
21 0.06
22 0.45
23 0.45
26 0.06

> <PUBCHEM_EFFECTIVE_ROTOR_COUNT>
3

> <PUBCHEM_PHARMACOPHORE_FEATURES>
7
1 1 acceptor
1 2 acceptor
3 15 24 25 hydrophobe
5 4 7 11 14 17 rings
6 3 4 5 7 10 12 rings
6 3 5 6 8 9 13 rings
6 6 8 15 16 21 22 rings

> <PUBCHEM_HEAVY_ATOM_COUNT>
26

> <PUBCHEM_ATOM_DEF_STEREO_COUNT>
7

> <PUBCHEM_ATOM_UDEF_STEREO_COUNT>
0

> <PUBCHEM_BOND_DEF_STEREO_COUNT>
0

> <PUBCHEM_BOND_UDEF_STEREO_COUNT>
0

> <PUBCHEM_ISOTOPIC_ATOM_COUNT>
0

> <PUBCHEM_COMPONENT_COUNT>
1

> <PUBCHEM_CACTVS_TAUTO_COUNT>
6

> <PUBCHEM_CONFORMER_ID>
00ED6BD600000001

> <PUBCHEM_MMFF94_ENERGY>
119.3887

> <PUBCHEM_FEATURE_SELFOVERLAP>
35.602

> <PUBCHEM_SHAPE_FINGERPRINT>
10366900 7 18342727495326468561
10863032 1 18341610455583879153
11045977 3 18342735225930348641
11405975 8 18271803553521766322
11578080 2 13397809133267650178
12011746 2 18340198605449931109
12166972 35 18334297608464826181
12236239 1 18114183063768672120
12553582 1 18336251388728736200
12633257 1 18339356375094983296
13140716 1 18412260666095727664
13224815 77 18336256925020662921
13583140 156 18410001161738370013
13675066 3 18201715197614946184
13782708 43 18060420265486594543
13862211 1 18411976962067932990
13911987 19 14129354970261744498
14341114 176 18410295830369330168
14420673 8 18337957788005291258
14790565 3 18337960094460653956
14955137 171 18260557757088290965
15196674 1 18410572920194831600
15209289 33 18335138691556857138
15788980 27 17632576054354179221
1601671 61 18408604734467867734
16945 1 18261936488639456588
17349148 13 18040716999894066651
17804303 29 18411419522673330580
17844677 252 18410016550063080296
1813 80 17240480333944151860
19141452 34 17632574976523285598
19591789 44 18411697729301547122
20691752 17 17749656485413524882
20832881 197 18342738490727628682
21033648 29 18200860830068029305
21267235 1 18336273409305852035
21279426 13 18340488855176546814
21421861 104 17896876547880841874
21682296 61 17702673129546121438
22950370 63 18114183034115208270
23402539 116 16988838363475544849
23522609 53 18045251321655504316
23559900 14 18410284839722313848
3004659 81 18261679191146842334
335352 9 18410291384903943276
350125 39 18410575076732865184
4214541 1 18410573981167889257
465052 167 18409172108432945058
5104073 3 18412541033297826808
59755656 215 18338234856039016711
633830 44 18340197583527192022
7495541 125 18334012792182439576
9709674 26 18263363766401453234

> <PUBCHEM_SHAPE_MULTIPOLES>
523.33
11.96
2.23
1.35
3.98
0
-0.3
-2.67
1.4
-0.23
0.23
-0.29
0.13
0.36

> <PUBCHEM_SHAPE_SELFOVERLAP>
1105.357

> <PUBCHEM_SHAPE_VOLUME>
294.4

> <PUBCHEM_COORDINATE_TYPE>
2
5
10

$$$$
