561668
  -OEChem-09102015023D

 25 25  0     0  0  0  0  0  0999 V2000
    2.5356    0.5216   -1.5133 O   0  5  0  0  0  0  0  0  0  0  0  0
    1.6974    1.7419    0.1174 O   0  0  0  0  0  0  0  0  0  0  0  0
    2.0253    0.6657   -0.3961 N   0  3  0  0  0  0  0  0  0  0  0  0
   -2.5747   -1.1951   -0.6693 C   0  0  0  0  0  0  0  0  0  0  0  0
   -1.0991   -1.3025   -0.2751 C   0  0  0  0  0  0  0  0  0  0  0  0
   -2.9639    0.2485   -0.9641 C   0  0  0  0  0  0  0  0  0  0  0  0
   -0.6490   -0.2249    0.6800 C   0  0  0  0  0  0  0  0  0  0  0  0
   -2.7056    1.1453    0.2468 C   0  0  0  0  0  0  0  0  0  0  0  0
   -1.3928    0.8694    0.9186 C   0  0  0  0  0  0  0  0  0  0  0  0
    0.6772   -0.4435    1.3459 C   0  0  0  0  0  0  0  0  0  0  0  0
    1.7948   -0.5160    0.3696 C   0  0  0  0  0  0  0  0  0  0  0  0
    2.6547   -1.5103    0.1396 C   0  0  0  0  0  0  0  0  0  0  0  0
   -2.7692   -1.8247   -1.5450 H   0  0  0  0  0  0  0  0  0  0  0  0
   -3.2008   -1.5812    0.1453 H   0  0  0  0  0  0  0  0  0  0  0  0
   -0.4882   -1.2501   -1.1848 H   0  0  0  0  0  0  0  0  0  0  0  0
   -0.9331   -2.2913    0.1692 H   0  0  0  0  0  0  0  0  0  0  0  0
   -4.0209    0.3050   -1.2471 H   0  0  0  0  0  0  0  0  0  0  0  0
   -2.3844    0.6131   -1.8220 H   0  0  0  0  0  0  0  0  0  0  0  0
   -3.5056    1.0114    0.9847 H   0  0  0  0  0  0  0  0  0  0  0  0
   -2.7366    2.1930   -0.0734 H   0  0  0  0  0  0  0  0  0  0  0  0
   -1.0464    1.6157    1.6287 H   0  0  0  0  0  0  0  0  0  0  0  0
    0.6218   -1.3799    1.9175 H   0  0  0  0  0  0  0  0  0  0  0  0
    0.8821    0.3314    2.0964 H   0  0  0  0  0  0  0  0  0  0  0  0
    3.4743   -1.4709   -0.5703 H   0  0  0  0  0  0  0  0  0  0  0  0
    2.5618   -2.4376    0.6985 H   0  0  0  0  0  0  0  0  0  0  0  0
  1  3  1  0  0  0  0
  2  3  2  0  0  0  0
  3 11  1  0  0  0  0
  4  5  1  0  0  0  0
  4  6  1  0  0  0  0
  4 13  1  0  0  0  0
  4 14  1  0  0  0  0
  5  7  1  0  0  0  0
  5 15  1  0  0  0  0
  5 16  1  0  0  0  0
  6  8  1  0  0  0  0
  6 17  1  0  0  0  0
  6 18  1  0  0  0  0
  7  9  2  0  0  0  0
  7 10  1  0  0  0  0
  8  9  1  0  0  0  0
  8 19  1  0  0  0  0
  8 20  1  0  0  0  0
  9 21  1  0  0  0  0
 10 11  1  0  0  0  0
 10 22  1  0  0  0  0
 10 23  1  0  0  0  0
 11 12  2  0  0  0  0
 12 24  1  0  0  0  0
 12 25  1  0  0  0  0
M  CHG  2   1  -1   3   1
M  END
> <PUBCHEM_COMPOUND_CID>
561668

> <PUBCHEM_CONFORMER_RMSD>
0.6

> <PUBCHEM_CONFORMER_DIVERSEORDER>
1
17
6
3
12
21
22
7
10
13
14
16
4
11
19
20
8
2
15
5
18
9

> <PUBCHEM_MMFF94_PARTIAL_CHARGES>
13
1 -0.52
10 0.28
11 0.07
12 -0.3
2 -0.52
21 0.15
24 0.15
25 0.15
3 0.84
5 0.14
7 -0.28
8 0.14
9 -0.29

> <PUBCHEM_EFFECTIVE_ROTOR_COUNT>
3.8

> <PUBCHEM_PHARMACOPHORE_FEATURES>
4
1 1 acceptor
1 1 anion
1 2 acceptor
6 4 5 6 7 8 9 rings

> <PUBCHEM_HEAVY_ATOM_COUNT>
12

> <PUBCHEM_ATOM_DEF_STEREO_COUNT>
0

> <PUBCHEM_ATOM_UDEF_STEREO_COUNT>
0

> <PUBCHEM_BOND_DEF_STEREO_COUNT>
0

> <PUBCHEM_BOND_UDEF_STEREO_COUNT>
0

> <PUBCHEM_ISOTOPIC_ATOM_COUNT>
0

> <PUBCHEM_COMPONENT_COUNT>
1

> <PUBCHEM_CACTVS_TAUTO_COUNT>
1

> <PUBCHEM_CONFORMER_ID>
0008920400000001

> <PUBCHEM_MMFF94_ENERGY>
14.0772

> <PUBCHEM_FEATURE_SELFOVERLAP>
20.376

> <PUBCHEM_SHAPE_FINGERPRINT>
12897270 3 18269556207240981183
12932764 1 18342465858476702553
13764800 53 14273739512694926149
15775835 57 18260553311649180493
16945 1 18265897049834407795
18186145 218 17603574206553071991
20201158 50 15697708246903599567
20279233 1 15267052627921650877
20645464 45 15357698612577704256
20645476 183 18412261735864519823
20653085 51 17822006472097685039
20711985 344 16055494763747116954
207724 885 18192148192054118138
230 275 16950552298859195564
23552423 10 18411689972564373347
23557571 272 17489012877060792315
23559900 14 17416674766557545058
2748010 2 17041197416105857395
29004967 10 14045731625752876059
3248919 1 18187639219565007235
369184 2 9799691506646951291
5084963 1 18339912715294286851
549884 4 18260548913571020644
63268167 104 18187365411062656704
8030462 33 18411140259441305546
81228 2 15625674782087081907
9939556 21 18411134710427994083

> <PUBCHEM_SHAPE_MULTIPOLES>
230.23
4.76
1.54
1.17
0.27
0.02
0.08
-0.1
1.36
-0.08
0.07
-0.24
0.09
-0.61

> <PUBCHEM_SHAPE_SELFOVERLAP>
461.677

> <PUBCHEM_SHAPE_VOLUME>
134.7

> <PUBCHEM_COORDINATE_TYPE>
2
5
10

$$$$
