9851101
  -OEChem-09102013313D

 79 85  0     1  0  0  0  0  0999 V2000
    2.5372    2.8690   -0.6387 O   0  0  0  0  0  0  0  0  0  0  0  0
   -3.7502    0.6436   -2.1957 O   0  0  0  0  0  0  0  0  0  0  0  0
   -0.2267    1.8739    2.1353 O   0  0  0  0  0  0  0  0  0  0  0  0
    2.5657   -1.6682   -0.9117 O   0  0  0  0  0  0  0  0  0  0  0  0
   -1.5439   -1.8267    0.6274 O   0  0  0  0  0  0  0  0  0  0  0  0
    0.3422   -0.8254   -2.4817 O   0  0  0  0  0  0  0  0  0  0  0  0
   -4.2619   -1.1336    1.7429 O   0  0  0  0  0  0  0  0  0  0  0  0
   -5.8430    1.3341   -1.4324 O   0  0  0  0  0  0  0  0  0  0  0  0
    6.4452   -1.3350    1.9682 O   0  0  0  0  0  0  0  0  0  0  0  0
    2.5216   -2.0732   -3.1857 O   0  0  0  0  0  0  0  0  0  0  0  0
   -5.4327   -3.0962    1.4048 O   0  0  0  0  0  0  0  0  0  0  0  0
    1.7952    1.8540    0.1172 C   0  0  1  0  0  0  0  0  0  0  0  0
    0.2802    1.9332   -0.2475 C   0  0  1  0  0  0  0  0  0  0  0  0
    2.5273    0.4961    0.2204 C   0  0  2  0  0  0  0  0  0  0  0  0
    2.6796    2.8860    0.7646 C   0  0  1  0  0  0  0  0  0  0  0  0
   -0.2429    0.4774   -0.5112 C   0  0  1  0  0  0  0  0  0  0  0  0
   -1.7907    0.2470   -0.7060 C   0  0  2  0  0  0  0  0  0  0  0  0
    4.0517    0.9610    0.3146 C   0  0  1  0  0  0  0  0  0  0  0  0
   -2.5408    0.9822    0.4587 C   0  0  1  0  0  0  0  0  0  0  0  0
   -0.5408    2.5460    0.9132 C   0  0  1  0  0  0  0  0  0  0  0  0
    3.9775    2.2533    1.1921 C   0  0  0  0  0  0  0  0  0  0  0  0
    2.2044   -0.3073   -1.0569 C   0  0  2  0  0  0  0  0  0  0  0  0
   -2.0606    2.4400    0.6750 C   0  0  0  0  0  0  0  0  0  0  0  0
    0.7192   -0.2596   -1.4557 C   0  0  0  0  0  0  0  0  0  0  0  0
   -4.0834    0.8209    0.2448 C   0  0  2  0  0  0  0  0  0  0  0  0
    0.1091    2.8492   -1.4943 C   0  0  0  0  0  0  0  0  0  0  0  0
   -2.1295   -1.2954   -0.5669 C   0  0  2  0  0  0  0  0  0  0  0  0
    2.1950   -0.2665    1.5330 C   0  0  0  0  0  0  0  0  0  0  0  0
   -2.3301    0.7271   -2.0794 C   0  0  0  0  0  0  0  0  0  0  0  0
   -4.4363   -0.7006    0.3878 C   0  0  1  0  0  0  0  0  0  0  0  0
   -3.6307   -1.6268   -0.5329 C   0  0  0  0  0  0  0  0  0  0  0  0
   -4.4398    1.3575   -1.1737 C   0  0  1  0  0  0  0  0  0  0  0  0
    5.0823   -0.0678    0.7142 C   0  0  0  0  0  0  0  0  0  0  0  0
   -4.8876    1.6077    1.3023 C   0  0  0  0  0  0  0  0  0  0  0  0
    5.7985   -0.9303   -0.1460 C   0  0  0  0  0  0  0  0  0  0  0  0
    5.5088   -0.3504    1.9886 C   0  0  0  0  0  0  0  0  0  0  0  0
    2.4212   -2.4521   -2.0266 C   0  0  0  0  0  0  0  0  0  0  0  0
    6.6157   -1.6823    0.6655 C   0  0  0  0  0  0  0  0  0  0  0  0
   -4.5857   -2.4358    1.9911 C   0  0  0  0  0  0  0  0  0  0  0  0
    2.1182   -3.8649   -1.6289 C   0  0  0  0  0  0  0  0  0  0  0  0
   -3.7385   -2.9612    3.1102 C   0  0  0  0  0  0  0  0  0  0  0  0
    2.2932    3.6975    1.3540 H   0  0  0  0  0  0  0  0  0  0  0  0
   -0.0811   -0.0549    0.4176 H   0  0  0  0  0  0  0  0  0  0  0  0
    4.3581    1.2913   -0.6917 H   0  0  0  0  0  0  0  0  0  0  0  0
   -2.3095    0.4626    1.3978 H   0  0  0  0  0  0  0  0  0  0  0  0
   -0.2705    3.5980    1.0592 H   0  0  0  0  0  0  0  0  0  0  0  0
    4.8303    2.9116    0.9976 H   0  0  0  0  0  0  0  0  0  0  0  0
    3.9496    2.0308    2.2633 H   0  0  0  0  0  0  0  0  0  0  0  0
    2.7567    0.1379   -1.8962 H   0  0  0  0  0  0  0  0  0  0  0  0
   -2.3624    3.0831   -0.1548 H   0  0  0  0  0  0  0  0  0  0  0  0
   -2.5529    2.8384    1.5704 H   0  0  0  0  0  0  0  0  0  0  0  0
    0.5856    3.8257   -1.3440 H   0  0  0  0  0  0  0  0  0  0  0  0
   -0.9224    3.1106   -1.7133 H   0  0  0  0  0  0  0  0  0  0  0  0
    0.5513    2.3973   -2.3886 H   0  0  0  0  0  0  0  0  0  0  0  0
   -1.6800   -1.8463   -1.4004 H   0  0  0  0  0  0  0  0  0  0  0  0
    2.8434   -1.1388    1.6633 H   0  0  0  0  0  0  0  0  0  0  0  0
    1.1877   -0.6716    1.5917 H   0  0  0  0  0  0  0  0  0  0  0  0
    2.3148    0.3750    2.4123 H   0  0  0  0  0  0  0  0  0  0  0  0
   -2.0705    1.7509   -2.3195 H   0  0  0  0  0  0  0  0  0  0  0  0
   -1.9202    0.1136   -2.8872 H   0  0  0  0  0  0  0  0  0  0  0  0
   -5.5022   -0.8229    0.1507 H   0  0  0  0  0  0  0  0  0  0  0  0
   -3.7385   -2.6834   -0.2707 H   0  0  0  0  0  0  0  0  0  0  0  0
   -4.0349   -1.5579   -1.5484 H   0  0  0  0  0  0  0  0  0  0  0  0
   -4.1501    2.4126   -1.2473 H   0  0  0  0  0  0  0  0  0  0  0  0
   -4.5328    1.3954    2.3168 H   0  0  0  0  0  0  0  0  0  0  0  0
   -5.9518    1.3491    1.2631 H   0  0  0  0  0  0  0  0  0  0  0  0
   -4.8143    2.6889    1.1425 H   0  0  0  0  0  0  0  0  0  0  0  0
   -0.4969    0.9454    2.0897 H   0  0  0  0  0  0  0  0  0  0  0  0
   -1.6652   -2.7913    0.6099 H   0  0  0  0  0  0  0  0  0  0  0  0
    5.7305   -1.0002   -1.2221 H   0  0  0  0  0  0  0  0  0  0  0  0
    5.2618    0.0322    2.9683 H   0  0  0  0  0  0  0  0  0  0  0  0
   -6.0300    2.0417   -2.0725 H   0  0  0  0  0  0  0  0  0  0  0  0
    7.3376   -2.4643    0.4809 H   0  0  0  0  0  0  0  0  0  0  0  0
    2.0075   -4.4792   -2.5269 H   0  0  0  0  0  0  0  0  0  0  0  0
    2.9406   -4.2652   -1.0308 H   0  0  0  0  0  0  0  0  0  0  0  0
    1.1814   -3.8967   -1.0666 H   0  0  0  0  0  0  0  0  0  0  0  0
   -3.9460   -2.3996    4.0244 H   0  0  0  0  0  0  0  0  0  0  0  0
   -2.6805   -2.8912    2.8502 H   0  0  0  0  0  0  0  0  0  0  0  0
   -3.9823   -4.0131    3.2846 H   0  0  0  0  0  0  0  0  0  0  0  0
  1 12  1  0  0  0  0
  1 15  1  0  0  0  0
  2 29  1  0  0  0  0
  2 32  1  0  0  0  0
  3 20  1  0  0  0  0
  3 68  1  0  0  0  0
  4 22  1  0  0  0  0
  4 37  1  0  0  0  0
  5 27  1  0  0  0  0
  5 69  1  0  0  0  0
  6 24  2  0  0  0  0
  7 30  1  0  0  0  0
  7 39  1  0  0  0  0
  8 32  1  0  0  0  0
  8 72  1  0  0  0  0
  9 36  1  0  0  0  0
  9 38  1  0  0  0  0
 10 37  2  0  0  0  0
 11 39  2  0  0  0  0
 12 13  1  0  0  0  0
 12 14  1  0  0  0  0
 12 15  1  0  0  0  0
 13 16  1  0  0  0  0
 13 20  1  0  0  0  0
 13 26  1  0  0  0  0
 14 18  1  0  0  0  0
 14 22  1  0  0  0  0
 14 28  1  0  0  0  0
 15 21  1  0  0  0  0
 15 42  1  0  0  0  0
 16 17  1  0  0  0  0
 16 24  1  0  0  0  0
 16 43  1  0  0  0  0
 17 19  1  0  0  0  0
 17 27  1  0  0  0  0
 17 29  1  0  0  0  0
 18 21  1  0  0  0  0
 18 33  1  0  0  0  0
 18 44  1  0  0  0  0
 19 23  1  0  0  0  0
 19 25  1  0  0  0  0
 19 45  1  0  0  0  0
 20 23  1  0  0  0  0
 20 46  1  0  0  0  0
 21 47  1  0  0  0  0
 21 48  1  0  0  0  0
 22 24  1  0  0  0  0
 22 49  1  0  0  0  0
 23 50  1  0  0  0  0
 23 51  1  0  0  0  0
 25 30  1  0  0  0  0
 25 32  1  0  0  0  0
 25 34  1  0  0  0  0
 26 52  1  0  0  0  0
 26 53  1  0  0  0  0
 26 54  1  0  0  0  0
 27 31  1  0  0  0  0
 27 55  1  0  0  0  0
 28 56  1  0  0  0  0
 28 57  1  0  0  0  0
 28 58  1  0  0  0  0
 29 59  1  0  0  0  0
 29 60  1  0  0  0  0
 30 31  1  0  0  0  0
 30 61  1  0  0  0  0
 31 62  1  0  0  0  0
 31 63  1  0  0  0  0
 32 64  1  0  0  0  0
 33 35  1  0  0  0  0
 33 36  2  0  0  0  0
 34 65  1  0  0  0  0
 34 66  1  0  0  0  0
 34 67  1  0  0  0  0
 35 38  2  0  0  0  0
 35 70  1  0  0  0  0
 36 71  1  0  0  0  0
 37 40  1  0  0  0  0
 38 73  1  0  0  0  0
 39 41  1  0  0  0  0
 40 74  1  0  0  0  0
 40 75  1  0  0  0  0
 40 76  1  0  0  0  0
 41 77  1  0  0  0  0
 41 78  1  0  0  0  0
 41 79  1  0  0  0  0
M  END
> <PUBCHEM_COMPOUND_CID>
9851101

> <PUBCHEM_CONFORMER_RMSD>
1

> <PUBCHEM_CONFORMER_DIVERSEORDER>
1

> <PUBCHEM_MMFF94_PARTIAL_CHARGES>
40
1 -0.3
10 -0.57
11 -0.57
12 -0.04
13 0.09
14 0.09
15 -0.05
16 0.06
18 0.18
2 -0.56
20 0.28
21 0.09
22 0.34
24 0.45
27 0.28
29 0.28
3 -0.68
30 0.28
32 0.56
33 -0.18
35 -0.15
36 -0.01
37 0.66
38 -0.01
39 0.66
4 -0.43
40 0.06
41 0.06
42 0.1
5 -0.68
6 -0.57
68 0.4
69 0.4
7 -0.43
70 0.15
71 0.15
72 0.4
73 0.15
8 -0.68
9 -0.28

> <PUBCHEM_EFFECTIVE_ROTOR_COUNT>
7.4

> <PUBCHEM_PHARMACOPHORE_FEATURES>
18
1 1 acceptor
1 10 acceptor
1 11 acceptor
1 2 acceptor
1 3 acceptor
1 3 donor
1 5 acceptor
1 5 donor
1 6 acceptor
1 8 acceptor
1 8 donor
1 9 acceptor
5 9 33 35 36 38 rings
6 1 12 14 15 18 21 rings
6 12 13 14 16 22 24 rings
6 13 16 17 19 20 23 rings
6 17 19 25 27 30 31 rings
6 2 17 19 25 29 32 rings

> <PUBCHEM_HEAVY_ATOM_COUNT>
41

> <PUBCHEM_ATOM_DEF_STEREO_COUNT>
14

> <PUBCHEM_ATOM_UDEF_STEREO_COUNT>
0

> <PUBCHEM_BOND_DEF_STEREO_COUNT>
0

> <PUBCHEM_BOND_UDEF_STEREO_COUNT>
0

> <PUBCHEM_ISOTOPIC_ATOM_COUNT>
0

> <PUBCHEM_COMPONENT_COUNT>
1

> <PUBCHEM_CACTVS_TAUTO_COUNT>
3

> <PUBCHEM_CONFORMER_ID>
009650DD00000001

> <PUBCHEM_MMFF94_ENERGY>
176.1291

> <PUBCHEM_FEATURE_SELFOVERLAP>
93.323

> <PUBCHEM_SHAPE_FINGERPRINT>
10675989 125 16755213840532549360
11135609 12 18340219526124769353
11796584 16 17822003169273193810
11828532 37 17317898206773141475
12166972 35 17023189357152830706
12422481 6 18131914845346317552
12633257 1 18410567375539907856
13140716 1 18058718238940388532
13224815 77 18060138786304360005
13782708 43 18113900502218191499
14955137 171 18201999894487431720
15815584 197 18202292368242521718
17349148 13 18343861130348592052
20028762 73 17631716241294678878
20511986 3 16630229321465721557
20721686 56 18129098927259098622
20764821 26 18200036286087843030
21987440 362 16159587599813066165
23559900 14 18271810085934999476
23569914 2 12101876268750659330
23569943 247 17058938724038024294
3380486 145 18131911572670883237
3633792 109 17987221250046961845
392239 28 16702012085247339728
45266715 3 18191009124621480647
5104073 3 18340770432921821481
563151 74 17417820487384816235
57527293 21 18115325487195469701
9849439 229 13684364962470626467

> <PUBCHEM_SHAPE_MULTIPOLES>
779.2
12.99
3.78
2.52
5.18
1.06
0.13
5.47
-6.02
-0.4
-0.32
-0.74
1.65
3.05

> <PUBCHEM_SHAPE_SELFOVERLAP>
1712.574

> <PUBCHEM_SHAPE_VOLUME>
410

> <PUBCHEM_COORDINATE_TYPE>
2
5
10

$$$$
