12313665
  -OEChem-09102013193D

 83 87  0     1  0  0  0  0  0999 V2000
    4.9693   -0.7163    0.3743 O   0  0  0  0  0  0  0  0  0  0  0  0
   -6.9466    1.8367    0.3146 O   0  0  0  0  0  0  0  0  0  0  0  0
    5.0763    1.2412   -1.5766 O   0  0  0  0  0  0  0  0  0  0  0  0
   -1.2270   -1.1677    0.1633 C   0  0  1  0  0  0  0  0  0  0  0  0
    0.2581   -1.2965   -0.4275 C   0  0  1  0  0  0  0  0  0  0  0  0
   -1.6767    0.3458    0.0087 C   0  0  1  0  0  0  0  0  0  0  0  0
    1.1923   -0.3253    0.3417 C   0  0  1  0  0  0  0  0  0  0  0  0
   -3.2043    0.6755    0.2953 C   0  0  2  0  0  0  0  0  0  0  0  0
    2.6075   -0.7133   -0.1040 C   0  0  2  0  0  0  0  0  0  0  0  0
   -4.1016   -0.3434   -0.4987 C   0  0  1  0  0  0  0  0  0  0  0  0
   -2.2255   -2.0612   -0.6159 C   0  0  0  0  0  0  0  0  0  0  0  0
    1.0229   -2.6178   -0.1814 C   0  0  0  0  0  0  0  0  0  0  0  0
   -0.6677    1.3244    0.6725 C   0  0  0  0  0  0  0  0  0  0  0  0
    0.7768    1.1288    0.1825 C   0  0  0  0  0  0  0  0  0  0  0  0
    2.5182   -2.2448   -0.2864 C   0  0  0  0  0  0  0  0  0  0  0  0
   -3.6927   -1.8098   -0.2567 C   0  0  0  0  0  0  0  0  0  0  0  0
   -1.2588   -1.6311    1.6478 C   0  0  0  0  0  0  0  0  0  0  0  0
    0.2969   -1.0539   -1.9732 C   0  0  0  0  0  0  0  0  0  0  0  0
    3.6887   -0.3062    0.8925 C   0  0  2  0  0  0  0  0  0  0  0  0
   -3.5025    2.1153   -0.2560 C   0  0  0  0  0  0  0  0  0  0  0  0
   -5.6489   -0.1009   -0.3642 C   0  0  0  0  0  0  0  0  0  0  0  0
   -3.5325    0.7086    1.8055 C   0  0  0  0  0  0  0  0  0  0  0  0
   -4.9067    2.3389   -0.8085 C   0  0  0  0  0  0  0  0  0  0  0  0
   -5.9197    1.4002   -0.2063 C   0  0  0  0  0  0  0  0  0  0  0  0
    3.7661    1.2092    1.0633 C   0  0  0  0  0  0  0  0  0  0  0  0
    3.4732   -1.0244    2.2276 C   0  0  0  0  0  0  0  0  0  0  0  0
   -6.3592   -0.5386   -1.6636 C   0  0  0  0  0  0  0  0  0  0  0  0
   -6.3117   -0.8594    0.8015 C   0  0  0  0  0  0  0  0  0  0  0  0
    5.2322    1.4369    1.3461 C   0  0  0  0  0  0  0  0  0  0  0  0
    5.9075    0.3660    0.5048 C   0  0  2  0  0  0  0  0  0  0  0  0
    6.2718    0.8517   -0.8917 C   0  0  0  0  0  0  0  0  0  0  0  0
    6.9491   -0.2548   -1.7066 C   0  0  0  0  0  0  0  0  0  0  0  0
    7.1754    2.0862   -0.8248 C   0  0  0  0  0  0  0  0  0  0  0  0
   -1.5922    0.5568   -1.0648 H   0  0  0  0  0  0  0  0  0  0  0  0
    1.1017   -0.5490    1.4059 H   0  0  0  0  0  0  0  0  0  0  0  0
    2.8333   -0.2656   -1.0775 H   0  0  0  0  0  0  0  0  0  0  0  0
   -3.8616   -0.1563   -1.5587 H   0  0  0  0  0  0  0  0  0  0  0  0
   -1.9896   -3.1201   -0.4526 H   0  0  0  0  0  0  0  0  0  0  0  0
   -2.1397   -1.8907   -1.6935 H   0  0  0  0  0  0  0  0  0  0  0  0
    0.7516   -3.4085   -0.8886 H   0  0  0  0  0  0  0  0  0  0  0  0
    0.8610   -3.0138    0.8240 H   0  0  0  0  0  0  0  0  0  0  0  0
   -0.6834    1.2084    1.7612 H   0  0  0  0  0  0  0  0  0  0  0  0
   -0.9508    2.3628    0.4700 H   0  0  0  0  0  0  0  0  0  0  0  0
    0.8644    1.4507   -0.8610 H   0  0  0  0  0  0  0  0  0  0  0  0
    1.3877    1.8103    0.7711 H   0  0  0  0  0  0  0  0  0  0  0  0
    3.1256   -2.8617    0.3767 H   0  0  0  0  0  0  0  0  0  0  0  0
    2.8741   -2.4906   -1.2960 H   0  0  0  0  0  0  0  0  0  0  0  0
   -4.3038   -2.4696   -0.8843 H   0  0  0  0  0  0  0  0  0  0  0  0
   -3.8887   -2.1116    0.7756 H   0  0  0  0  0  0  0  0  0  0  0  0
   -0.6788   -0.9917    2.3160 H   0  0  0  0  0  0  0  0  0  0  0  0
   -2.2633   -1.6673    2.0623 H   0  0  0  0  0  0  0  0  0  0  0  0
   -0.8927   -2.6551    1.7595 H   0  0  0  0  0  0  0  0  0  0  0  0
    1.3117   -1.0511   -2.3813 H   0  0  0  0  0  0  0  0  0  0  0  0
   -0.2226   -1.8537   -2.5107 H   0  0  0  0  0  0  0  0  0  0  0  0
   -0.1455   -0.1038   -2.2766 H   0  0  0  0  0  0  0  0  0  0  0  0
   -2.8069    2.3716   -1.0657 H   0  0  0  0  0  0  0  0  0  0  0  0
   -3.3090    2.8585    0.5293 H   0  0  0  0  0  0  0  0  0  0  0  0
   -2.7619    1.2270    2.3823 H   0  0  0  0  0  0  0  0  0  0  0  0
   -4.4627    1.2507    2.0068 H   0  0  0  0  0  0  0  0  0  0  0  0
   -3.6625   -0.2823    2.2374 H   0  0  0  0  0  0  0  0  0  0  0  0
   -4.9191    2.1888   -1.8941 H   0  0  0  0  0  0  0  0  0  0  0  0
   -5.2177    3.3741   -0.6293 H   0  0  0  0  0  0  0  0  0  0  0  0
    3.1530    1.5834    1.8889 H   0  0  0  0  0  0  0  0  0  0  0  0
    3.4891    1.7501    0.1538 H   0  0  0  0  0  0  0  0  0  0  0  0
    3.4575   -2.1134    2.1640 H   0  0  0  0  0  0  0  0  0  0  0  0
    4.3196   -0.8167    2.8954 H   0  0  0  0  0  0  0  0  0  0  0  0
    2.5818   -0.6898    2.7643 H   0  0  0  0  0  0  0  0  0  0  0  0
   -6.2487   -1.6131   -1.8419 H   0  0  0  0  0  0  0  0  0  0  0  0
   -7.4324   -0.3173   -1.6215 H   0  0  0  0  0  0  0  0  0  0  0  0
   -5.9614   -0.0098   -2.5372 H   0  0  0  0  0  0  0  0  0  0  0  0
   -7.3862   -0.6444    0.8526 H   0  0  0  0  0  0  0  0  0  0  0  0
   -6.2171   -1.9443    0.6887 H   0  0  0  0  0  0  0  0  0  0  0  0
   -5.8952   -0.5800    1.7716 H   0  0  0  0  0  0  0  0  0  0  0  0
    5.5436    2.4681    1.1787 H   0  0  0  0  0  0  0  0  0  0  0  0
    5.4253    1.2290    2.4064 H   0  0  0  0  0  0  0  0  0  0  0  0
    6.8002   -0.0117    1.0168 H   0  0  0  0  0  0  0  0  0  0  0  0
    7.1703    0.0912   -2.7229 H   0  0  0  0  0  0  0  0  0  0  0  0
    7.8851   -0.5797   -1.2405 H   0  0  0  0  0  0  0  0  0  0  0  0
    6.2975   -1.1285   -1.8195 H   0  0  0  0  0  0  0  0  0  0  0  0
    6.6390    2.9860   -0.5092 H   0  0  0  0  0  0  0  0  0  0  0  0
    7.5634    2.3262   -1.8226 H   0  0  0  0  0  0  0  0  0  0  0  0
    8.0336    1.9250   -0.1643 H   0  0  0  0  0  0  0  0  0  0  0  0
    4.6261    0.4340   -1.8750 H   0  0  0  0  0  0  0  0  0  0  0  0
  1 19  1  0  0  0  0
  1 30  1  0  0  0  0
  2 24  2  0  0  0  0
  3 31  1  0  0  0  0
  3 83  1  0  0  0  0
  4  5  1  0  0  0  0
  4  6  1  0  0  0  0
  4 11  1  0  0  0  0
  4 17  1  0  0  0  0
  5  7  1  0  0  0  0
  5 12  1  0  0  0  0
  5 18  1  0  0  0  0
  6  8  1  0  0  0  0
  6 13  1  0  0  0  0
  6 34  1  0  0  0  0
  7  9  1  0  0  0  0
  7 14  1  0  0  0  0
  7 35  1  0  0  0  0
  8 10  1  0  0  0  0
  8 20  1  0  0  0  0
  8 22  1  0  0  0  0
  9 15  1  0  0  0  0
  9 19  1  0  0  0  0
  9 36  1  0  0  0  0
 10 16  1  0  0  0  0
 10 21  1  0  0  0  0
 10 37  1  0  0  0  0
 11 16  1  0  0  0  0
 11 38  1  0  0  0  0
 11 39  1  0  0  0  0
 12 15  1  0  0  0  0
 12 40  1  0  0  0  0
 12 41  1  0  0  0  0
 13 14  1  0  0  0  0
 13 42  1  0  0  0  0
 13 43  1  0  0  0  0
 14 44  1  0  0  0  0
 14 45  1  0  0  0  0
 15 46  1  0  0  0  0
 15 47  1  0  0  0  0
 16 48  1  0  0  0  0
 16 49  1  0  0  0  0
 17 50  1  0  0  0  0
 17 51  1  0  0  0  0
 17 52  1  0  0  0  0
 18 53  1  0  0  0  0
 18 54  1  0  0  0  0
 18 55  1  0  0  0  0
 19 25  1  0  0  0  0
 19 26  1  0  0  0  0
 20 23  1  0  0  0  0
 20 56  1  0  0  0  0
 20 57  1  0  0  0  0
 21 24  1  0  0  0  0
 21 27  1  0  0  0  0
 21 28  1  0  0  0  0
 22 58  1  0  0  0  0
 22 59  1  0  0  0  0
 22 60  1  0  0  0  0
 23 24  1  0  0  0  0
 23 61  1  0  0  0  0
 23 62  1  0  0  0  0
 25 29  1  0  0  0  0
 25 63  1  0  0  0  0
 25 64  1  0  0  0  0
 26 65  1  0  0  0  0
 26 66  1  0  0  0  0
 26 67  1  0  0  0  0
 27 68  1  0  0  0  0
 27 69  1  0  0  0  0
 27 70  1  0  0  0  0
 28 71  1  0  0  0  0
 28 72  1  0  0  0  0
 28 73  1  0  0  0  0
 29 30  1  0  0  0  0
 29 74  1  0  0  0  0
 29 75  1  0  0  0  0
 30 31  1  0  0  0  0
 30 76  1  0  0  0  0
 31 32  1  0  0  0  0
 31 33  1  0  0  0  0
 32 77  1  0  0  0  0
 32 78  1  0  0  0  0
 32 79  1  0  0  0  0
 33 80  1  0  0  0  0
 33 81  1  0  0  0  0
 33 82  1  0  0  0  0
M  END
> <PUBCHEM_COMPOUND_CID>
12313665

> <PUBCHEM_CONFORMER_RMSD>
0.8

> <PUBCHEM_CONFORMER_DIVERSEORDER>
1
2
3

> <PUBCHEM_MMFF94_PARTIAL_CHARGES>
10
1 -0.56
19 0.28
2 -0.57
21 0.06
23 0.06
24 0.45
3 -0.68
30 0.28
31 0.28
83 0.4

> <PUBCHEM_EFFECTIVE_ROTOR_COUNT>
5

> <PUBCHEM_PHARMACOPHORE_FEATURES>
11
1 1 acceptor
1 2 acceptor
1 3 acceptor
1 3 donor
3 21 27 28 hydrophobe
3 31 32 33 hydrophobe
5 1 19 25 29 30 rings
5 5 7 9 12 15 rings
6 4 5 6 7 13 14 rings
6 4 6 8 10 11 16 rings
6 8 10 20 21 23 24 rings

> <PUBCHEM_HEAVY_ATOM_COUNT>
33

> <PUBCHEM_ATOM_DEF_STEREO_COUNT>
9

> <PUBCHEM_ATOM_UDEF_STEREO_COUNT>
0

> <PUBCHEM_BOND_DEF_STEREO_COUNT>
0

> <PUBCHEM_BOND_UDEF_STEREO_COUNT>
0

> <PUBCHEM_ISOTOPIC_ATOM_COUNT>
0

> <PUBCHEM_COMPONENT_COUNT>
1

> <PUBCHEM_CACTVS_TAUTO_COUNT>
2

> <PUBCHEM_CONFORMER_ID>
00BBE44100000001

> <PUBCHEM_MMFF94_ENERGY>
164.81

> <PUBCHEM_FEATURE_SELFOVERLAP>
55.91

> <PUBCHEM_SHAPE_FINGERPRINT>
10 15 18260552200038511017
10290309 65 18342739568849816303
10554248 39 18191285118418425823
10591671 39 18412547634430405927
10670039 82 17846788364782169424
10675989 125 16967999053850465301
10906281 52 18335148587113897939
11007060 377 18261396680333661265
11488393 25 16915676782359207926
11578080 2 17679003912627654717
11991303 11 17274535541808799702
12011746 2 18131070441753852658
12166972 35 12607402208997584482
12236239 1 18040432183221952746
12403259 415 18131062766330959360
12516196 113 13190340166655850700
12596602 18 17385439921143159441
12788726 201 18338796715361369888
13533116 47 18042114380605604898
13782708 43 15195564623745814652
13914758 101 14476972163762268307
14528608 73 18273491273715869490
14790565 3 18337672022603697524
14840074 17 18260266360684087116
14856354 85 18336548326094641255
15001296 14 18263919015764037904
15021287 119 11241978096475140291
15131766 46 16372424799425318180
15183329 4 18410006654516322725
1577012 14 18260825982232960965
15961568 22 18260551095520370396
17980427 23 17967535704946503471
18608769 82 18337679732139078979
19611394 137 17969236696932248035
20511986 3 18040704875016741398
21033648 29 18129367350045903288
21130935 74 12685084861141381801
22122407 14 17749119919191612676
221357 26 17275107228411158104
22393880 68 17917140693262264894
23559900 14 17917705855118692880
23569914 152 16194255179862007269
23569943 247 16056052216374995758
23576562 1 18194401314739018597
27425 322 17968666046788429126
2838139 119 18271513243465050701
34797466 226 17274539931481418936
350125 39 18410854386687375449
394071 54 15864076477258979966
397830 11 15502955106592717673
4058900 60 18334580109701616898
4073 2 18186805789777975371
4112364 45 16878805901093077892
4258327 124 17895490227032409676
4340502 62 16588022407676355962
504579 68 15769773516723344713
5104073 3 18337391514195147723
5265222 85 18339361975684825092
53794403 172 18196368341679906320
59682541 52 16630530588110337108
59755656 215 18273495667277515852
6086070 43 17560796641506869930
6328613 192 18333450971309980316

> <PUBCHEM_SHAPE_MULTIPOLES>
661.52
18.54
2.41
1.58
6.26
0.1
-0.12
-8.89
4.3
-0.73
0.2
1.07
0.14
-0.32

> <PUBCHEM_SHAPE_SELFOVERLAP>
1405.287

> <PUBCHEM_SHAPE_VOLUME>
371.7

> <PUBCHEM_COORDINATE_TYPE>
2
5
10

$$$$
