101289764
  -OEChem-09102013133D

 86 90  0     1  0  0  0  0  0999 V2000
    2.4357    1.9798   -0.7519 O   0  0  0  0  0  0  0  0  0  0  0  0
   -5.9280    1.0022    0.0634 O   0  0  0  0  0  0  0  0  0  0  0  0
    6.8244   -2.4027   -1.5527 O   0  0  0  0  0  0  0  0  0  0  0  0
   -5.5317   -2.6253   -0.3352 O   0  0  0  0  0  0  0  0  0  0  0  0
    3.3592    4.0543   -0.3277 O   0  0  0  0  0  0  0  0  0  0  0  0
   -8.0248   -1.9300   -0.4055 O   0  0  0  0  0  0  0  0  0  0  0  0
    1.5353    0.5826    1.0654 C   0  0  2  0  0  0  0  0  0  0  0  0
    1.7927   -0.7886    0.3349 C   0  0  1  0  0  0  0  0  0  0  0  0
    3.2699   -1.3620    0.4725 C   0  0  1  0  0  0  0  0  0  0  0  0
   -0.9461    0.1395    0.2111 C   0  0  2  0  0  0  0  0  0  0  0  0
    0.1239    1.0780    0.7393 C   0  0  0  0  0  0  0  0  0  0  0  0
    4.2462   -0.2405   -0.0384 C   0  0  1  0  0  0  0  0  0  0  0  0
    2.6153    1.6143    0.6225 C   0  0  1  0  0  0  0  0  0  0  0  0
    0.6600   -1.8330    0.5722 C   0  0  0  0  0  0  0  0  0  0  0  0
   -2.2182    0.8421    0.7734 C   0  0  1  0  0  0  0  0  0  0  0  0
   -0.7425   -1.2528    0.8165 C   0  0  0  0  0  0  0  0  0  0  0  0
    4.0527    1.0796    0.7433 C   0  0  0  0  0  0  0  0  0  0  0  0
    5.7360   -0.6819   -0.2289 C   0  0  0  0  0  0  0  0  0  0  0  0
   -1.8670    2.3375    0.7437 C   0  0  0  0  0  0  0  0  0  0  0  0
    1.5762    0.4523    2.6103 C   0  0  0  0  0  0  0  0  0  0  0  0
   -0.3931    2.2947    0.9857 C   0  0  0  0  0  0  0  0  0  0  0  0
   -3.5387    0.5355    0.0754 C   0  0  1  0  0  0  0  0  0  0  0  0
    3.5850   -1.8613    1.9005 C   0  0  0  0  0  0  0  0  0  0  0  0
   -0.9643    0.0878   -1.3306 C   0  0  0  0  0  0  0  0  0  0  0  0
    3.4627   -2.5703   -0.4335 C   0  0  0  0  0  0  0  0  0  0  0  0
    5.7902   -2.0022   -1.0154 C   0  0  0  0  0  0  0  0  0  0  0  0
   -3.8355   -0.9660    0.0874 C   0  0  0  0  0  0  0  0  0  0  0  0
    4.5814   -2.8546   -1.1085 C   0  0  0  0  0  0  0  0  0  0  0  0
    6.6349    0.3383   -0.9421 C   0  0  0  0  0  0  0  0  0  0  0  0
    6.3762   -0.9625    1.1542 C   0  0  0  0  0  0  0  0  0  0  0  0
   -4.6962    1.2991    0.7217 C   0  0  0  0  0  0  0  0  0  0  0  0
   -5.2137   -1.2502   -0.5092 C   0  0  2  0  0  0  0  0  0  0  0  0
   -6.2816   -0.3805    0.1630 C   0  0  2  0  0  0  0  0  0  0  0  0
    2.8551    3.2333   -1.0819 C   0  0  0  0  0  0  0  0  0  0  0  0
   -7.6470   -0.5548   -0.4942 C   0  0  0  0  0  0  0  0  0  0  0  0
    2.6061    3.4749   -2.5399 C   0  0  0  0  0  0  0  0  0  0  0  0
   -8.7080    0.2858    0.2166 C   0  0  0  0  0  0  0  0  0  0  0  0
   -7.5827   -0.1922   -1.9773 C   0  0  0  0  0  0  0  0  0  0  0  0
    1.7174   -0.5578   -0.7374 H   0  0  0  0  0  0  0  0  0  0  0  0
    3.9221   -0.0129   -1.0685 H   0  0  0  0  0  0  0  0  0  0  0  0
    2.5240    2.5053    1.2589 H   0  0  0  0  0  0  0  0  0  0  0  0
    0.8955   -2.5052    1.4025 H   0  0  0  0  0  0  0  0  0  0  0  0
    0.5966   -2.4733   -0.3173 H   0  0  0  0  0  0  0  0  0  0  0  0
   -2.3302    0.5608    1.8339 H   0  0  0  0  0  0  0  0  0  0  0  0
   -1.4583   -1.9918    0.4547 H   0  0  0  0  0  0  0  0  0  0  0  0
   -0.9026   -1.2093    1.9023 H   0  0  0  0  0  0  0  0  0  0  0  0
    4.3128    0.9603    1.7977 H   0  0  0  0  0  0  0  0  0  0  0  0
    4.7406    1.8334    0.3471 H   0  0  0  0  0  0  0  0  0  0  0  0
   -2.3768    2.8799    1.5459 H   0  0  0  0  0  0  0  0  0  0  0  0
   -2.0860    2.8188   -0.2149 H   0  0  0  0  0  0  0  0  0  0  0  0
    1.2058    1.3621    3.0995 H   0  0  0  0  0  0  0  0  0  0  0  0
    0.9615   -0.3769    2.9735 H   0  0  0  0  0  0  0  0  0  0  0  0
    2.5826    0.3093    3.0026 H   0  0  0  0  0  0  0  0  0  0  0  0
    0.1589    3.1312    1.3896 H   0  0  0  0  0  0  0  0  0  0  0  0
   -3.4956    0.8551   -0.9743 H   0  0  0  0  0  0  0  0  0  0  0  0
    4.0624   -1.1057    2.5260 H   0  0  0  0  0  0  0  0  0  0  0  0
    4.2347   -2.7441    1.9083 H   0  0  0  0  0  0  0  0  0  0  0  0
    2.6850   -2.1796    2.4338 H   0  0  0  0  0  0  0  0  0  0  0  0
   -1.6966   -0.6215   -1.7224 H   0  0  0  0  0  0  0  0  0  0  0  0
   -0.0039   -0.2094   -1.7566 H   0  0  0  0  0  0  0  0  0  0  0  0
   -1.1935    1.0691   -1.7625 H   0  0  0  0  0  0  0  0  0  0  0  0
    2.6546   -3.2930   -0.5042 H   0  0  0  0  0  0  0  0  0  0  0  0
   -3.1277   -1.5384   -0.5111 H   0  0  0  0  0  0  0  0  0  0  0  0
   -3.7856   -1.3671    1.1081 H   0  0  0  0  0  0  0  0  0  0  0  0
    4.6502   -3.7538   -1.7110 H   0  0  0  0  0  0  0  0  0  0  0  0
    6.1761   -0.1774    1.8873 H   0  0  0  0  0  0  0  0  0  0  0  0
    7.4694   -1.0108    1.0551 H   0  0  0  0  0  0  0  0  0  0  0  0
    6.1076   -1.9346    1.5688 H   0  0  0  0  0  0  0  0  0  0  0  0
    6.7507    1.2567   -0.3579 H   0  0  0  0  0  0  0  0  0  0  0  0
    6.2113    0.6090   -1.9159 H   0  0  0  0  0  0  0  0  0  0  0  0
    7.6424   -0.0524   -1.1267 H   0  0  0  0  0  0  0  0  0  0  0  0
   -4.7924    1.0673    1.7895 H   0  0  0  0  0  0  0  0  0  0  0  0
   -4.5507    2.3799    0.6322 H   0  0  0  0  0  0  0  0  0  0  0  0
   -5.1463   -1.0426   -1.5821 H   0  0  0  0  0  0  0  0  0  0  0  0
   -6.3634   -0.6644    1.2220 H   0  0  0  0  0  0  0  0  0  0  0  0
   -4.8336   -3.1460   -0.7676 H   0  0  0  0  0  0  0  0  0  0  0  0
    3.1740    2.7564   -3.1362 H   0  0  0  0  0  0  0  0  0  0  0  0
    2.9360    4.4842   -2.8020 H   0  0  0  0  0  0  0  0  0  0  0  0
    1.5370    3.3921   -2.7516 H   0  0  0  0  0  0  0  0  0  0  0  0
   -8.5052    1.3589    0.1416 H   0  0  0  0  0  0  0  0  0  0  0  0
   -8.7697    0.0167    1.2772 H   0  0  0  0  0  0  0  0  0  0  0  0
   -9.7024    0.0975   -0.2046 H   0  0  0  0  0  0  0  0  0  0  0  0
   -7.0208   -0.9262   -2.5637 H   0  0  0  0  0  0  0  0  0  0  0  0
   -8.5909   -0.2023   -2.4106 H   0  0  0  0  0  0  0  0  0  0  0  0
   -7.1652    0.8044   -2.1513 H   0  0  0  0  0  0  0  0  0  0  0  0
   -8.8923   -2.0327   -0.8330 H   0  0  0  0  0  0  0  0  0  0  0  0
  1 13  1  0  0  0  0
  1 34  1  0  0  0  0
  2 31  1  0  0  0  0
  2 33  1  0  0  0  0
  3 26  2  0  0  0  0
  4 32  1  0  0  0  0
  4 76  1  0  0  0  0
  5 34  2  0  0  0  0
  6 35  1  0  0  0  0
  6 86  1  0  0  0  0
  7  8  1  0  0  0  0
  7 11  1  0  0  0  0
  7 13  1  0  0  0  0
  7 20  1  0  0  0  0
  8  9  1  0  0  0  0
  8 14  1  0  0  0  0
  8 39  1  0  0  0  0
  9 12  1  0  0  0  0
  9 23  1  0  0  0  0
  9 25  1  0  0  0  0
 10 11  1  0  0  0  0
 10 15  1  0  0  0  0
 10 16  1  0  0  0  0
 10 24  1  0  0  0  0
 11 21  2  0  0  0  0
 12 17  1  0  0  0  0
 12 18  1  0  0  0  0
 12 40  1  0  0  0  0
 13 17  1  0  0  0  0
 13 41  1  0  0  0  0
 14 16  1  0  0  0  0
 14 42  1  0  0  0  0
 14 43  1  0  0  0  0
 15 19  1  0  0  0  0
 15 22  1  0  0  0  0
 15 44  1  0  0  0  0
 16 45  1  0  0  0  0
 16 46  1  0  0  0  0
 17 47  1  0  0  0  0
 17 48  1  0  0  0  0
 18 26  1  0  0  0  0
 18 29  1  0  0  0  0
 18 30  1  0  0  0  0
 19 21  1  0  0  0  0
 19 49  1  0  0  0  0
 19 50  1  0  0  0  0
 20 51  1  0  0  0  0
 20 52  1  0  0  0  0
 20 53  1  0  0  0  0
 21 54  1  0  0  0  0
 22 27  1  0  0  0  0
 22 31  1  0  0  0  0
 22 55  1  0  0  0  0
 23 56  1  0  0  0  0
 23 57  1  0  0  0  0
 23 58  1  0  0  0  0
 24 59  1  0  0  0  0
 24 60  1  0  0  0  0
 24 61  1  0  0  0  0
 25 28  2  0  0  0  0
 25 62  1  0  0  0  0
 26 28  1  0  0  0  0
 27 32  1  0  0  0  0
 27 63  1  0  0  0  0
 27 64  1  0  0  0  0
 28 65  1  0  0  0  0
 29 69  1  0  0  0  0
 29 70  1  0  0  0  0
 29 71  1  0  0  0  0
 30 66  1  0  0  0  0
 30 67  1  0  0  0  0
 30 68  1  0  0  0  0
 31 72  1  0  0  0  0
 31 73  1  0  0  0  0
 32 33  1  0  0  0  0
 32 74  1  0  0  0  0
 33 35  1  0  0  0  0
 33 75  1  0  0  0  0
 34 36  1  0  0  0  0
 35 37  1  0  0  0  0
 35 38  1  0  0  0  0
 36 77  1  0  0  0  0
 36 78  1  0  0  0  0
 36 79  1  0  0  0  0
 37 80  1  0  0  0  0
 37 81  1  0  0  0  0
 37 82  1  0  0  0  0
 38 83  1  0  0  0  0
 38 84  1  0  0  0  0
 38 85  1  0  0  0  0
M  END
> <PUBCHEM_COMPOUND_CID>
101289764

> <PUBCHEM_CONFORMER_RMSD>
1

> <PUBCHEM_CONFORMER_DIVERSEORDER>
1
3
2

> <PUBCHEM_MMFF94_PARTIAL_CHARGES>
28
1 -0.43
10 0.14
11 -0.28
13 0.28
18 0.06
19 0.14
2 -0.56
21 -0.29
25 -0.29
26 0.49
28 -0.14
3 -0.57
31 0.28
32 0.28
33 0.28
34 0.66
35 0.28
36 0.06
4 -0.68
5 -0.57
54 0.15
6 -0.68
62 0.15
65 0.15
7 0.14
76 0.4
86 0.4
9 0.14

> <PUBCHEM_EFFECTIVE_ROTOR_COUNT>
6.6

> <PUBCHEM_PHARMACOPHORE_FEATURES>
14
1 2 acceptor
1 3 acceptor
1 4 acceptor
1 4 donor
1 5 acceptor
1 6 acceptor
1 6 donor
3 18 29 30 hydrophobe
3 35 37 38 hydrophobe
5 10 11 15 19 21 rings
6 2 22 27 31 32 33 rings
6 7 8 10 11 14 16 rings
6 7 8 9 12 13 17 rings
6 9 12 18 25 26 28 rings

> <PUBCHEM_HEAVY_ATOM_COUNT>
38

> <PUBCHEM_ATOM_DEF_STEREO_COUNT>
10

> <PUBCHEM_ATOM_UDEF_STEREO_COUNT>
0

> <PUBCHEM_BOND_DEF_STEREO_COUNT>
0

> <PUBCHEM_BOND_UDEF_STEREO_COUNT>
0

> <PUBCHEM_ISOTOPIC_ATOM_COUNT>
0

> <PUBCHEM_COMPONENT_COUNT>
1

> <PUBCHEM_CACTVS_TAUTO_COUNT>
2

> <PUBCHEM_CONFORMER_ID>
06098F2400000001

> <PUBCHEM_MMFF94_ENERGY>
156.0498

> <PUBCHEM_FEATURE_SELFOVERLAP>
71.171

> <PUBCHEM_SHAPE_FINGERPRINT>
10554248 39 18339067273264014933
10677351 27 18268448952542012259
11115154 58 18343026557994557009
11386260 185 18187361069199420189
11607047 74 18057596771145175928
117089 54 17558563400152763726
12107698 1 18334292050302365397
12166972 35 18343867692916150512
12522641 24 17418085559928897160
12522641 33 18268711791961918368
13540713 4 17460897312524398472
1361 2 18410577266929147082
13782708 43 16845565444730693327
13811026 1 18271240534511641174
14068700 675 18411420571015220312
15001296 14 18262230131759800331
15082195 135 18336838588700818724
15183329 4 18412825776955925051
15352257 5 18272650139074038847
15406563 5 18410849950192167029
15439362 3 17825112760473006644
15444296 7 18201153343257922758
15849732 13 17846494820672757862
16728433 281 17098318824430709165
18365409 1 17845646092634263198
18608769 82 18201431480597131626
18681886 176 18412822491062980400
20028762 73 18272368646348136662
20105231 36 18261401036095936707
21267235 1 18343866602653521851
21814621 53 11959468807611671007
22956985 138 13037531055248036660
23522609 53 17915209894967761368
23559900 14 18411416228565355203
23569943 247 17838626556778417690
23576562 1 17969515964069174926
24771293 8 18411138022639531760
249057 25 18130801053058395105
249057 3 18334576853920818095
27425 322 16661496276086591520
3004659 81 18410007741374826059
3633792 109 18334576841352713097
4066623 53 17168144529579854388
4073 2 18188772868030935963
439807 62 18343304734399148479
46194498 28 18186236251339167924
484989 97 18336274551677891595
504579 68 18333730213473045549
57527306 92 13551478081647797014
57527452 28 17203333274135167294
6086070 43 17677316217781835645
9831232 110 18410573981374124583

> <PUBCHEM_SHAPE_MULTIPOLES>
746.81
20.71
3.43
1.65
34.96
2.04
0.13
-10.53
6.73
-4.3
1.38
-1.29
0.44
-0.85

> <PUBCHEM_SHAPE_SELFOVERLAP>
1595.626

> <PUBCHEM_SHAPE_VOLUME>
407.4

> <PUBCHEM_COORDINATE_TYPE>
2
5
10

$$$$
