44421647
  -OEChem-09102013233D

 72 76  0     1  0  0  0  0  0999 V2000
    4.4328   -1.2157    0.6545 O   0  0  0  0  0  0  0  0  0  0  0  0
   -6.1257   -1.8582   -0.1444 O   0  0  0  0  0  0  0  0  0  0  0  0
    4.9768   -3.2651   -0.2200 O   0  0  0  0  0  0  0  0  0  0  0  0
   -0.3764    1.0844   -0.3684 C   0  0  1  0  0  0  0  0  0  0  0  0
    0.9915    1.5143    0.3494 C   0  0  1  0  0  0  0  0  0  0  0  0
   -0.9180   -0.2130    0.3666 C   0  0  1  0  0  0  0  0  0  0  0  0
    1.9950    0.3334    0.2702 C   0  0  1  0  0  0  0  0  0  0  0  0
   -2.3893   -0.6872   -0.0010 C   0  0  2  0  0  0  0  0  0  0  0  0
   -3.3578    0.5490    0.0843 C   0  0  1  0  0  0  0  0  0  0  0  0
    3.3309    0.9276    0.7330 C   0  0  2  0  0  0  0  0  0  0  0  0
   -1.4482    2.1985   -0.2576 C   0  0  0  0  0  0  0  0  0  0  0  0
    0.1405   -1.3508    0.3961 C   0  0  0  0  0  0  0  0  0  0  0  0
    1.8495    2.6100   -0.3249 C   0  0  0  0  0  0  0  0  0  0  0  0
    1.4889   -0.9079    0.9881 C   0  0  0  0  0  0  0  0  0  0  0  0
   -2.8438    1.7634   -0.7140 C   0  0  0  0  0  0  0  0  0  0  0  0
    3.2855    2.3746    0.1930 C   0  0  0  0  0  0  0  0  0  0  0  0
   -0.1336    0.8308   -1.8838 C   0  0  0  0  0  0  0  0  0  0  0  0
   -2.8454   -1.7350    1.0761 C   0  0  0  0  0  0  0  0  0  0  0  0
   -4.8700    0.2204   -0.1923 C   0  0  0  0  0  0  0  0  0  0  0  0
    0.7558    1.9921    1.8210 C   0  0  0  0  0  0  0  0  0  0  0  0
    4.5446    0.1540    0.2281 C   0  0  2  0  0  0  0  0  0  0  0  0
   -2.4584   -1.4061   -1.3677 C   0  0  0  0  0  0  0  0  0  0  0  0
   -4.3320   -1.7335    1.4182 C   0  0  0  0  0  0  0  0  0  0  0  0
   -5.1821   -1.1998    0.2946 C   0  0  0  0  0  0  0  0  0  0  0  0
    4.5724    0.0644   -1.2895 C   0  0  0  0  0  0  0  0  0  0  0  0
   -5.7677    1.1711    0.6289 C   0  0  0  0  0  0  0  0  0  0  0  0
   -5.2887    0.3517   -1.6690 C   0  0  0  0  0  0  0  0  0  0  0  0
    5.8335    0.7433    0.8061 C   0  0  0  0  0  0  0  0  0  0  0  0
    5.2600   -1.2577   -1.5443 C   0  0  0  0  0  0  0  0  0  0  0  0
    4.8793   -2.0529   -0.3314 C   0  0  0  0  0  0  0  0  0  0  0  0
   -1.0266    0.0832    1.4176 H   0  0  0  0  0  0  0  0  0  0  0  0
    2.0700    0.0436   -0.7740 H   0  0  0  0  0  0  0  0  0  0  0  0
   -3.3098    0.8661    1.1395 H   0  0  0  0  0  0  0  0  0  0  0  0
    3.3567    0.9352    1.8305 H   0  0  0  0  0  0  0  0  0  0  0  0
   -1.1372    3.0786   -0.8342 H   0  0  0  0  0  0  0  0  0  0  0  0
   -1.5548    2.5330    0.7789 H   0  0  0  0  0  0  0  0  0  0  0  0
    0.3152   -1.7368   -0.6137 H   0  0  0  0  0  0  0  0  0  0  0  0
   -0.2218   -2.1968    0.9896 H   0  0  0  0  0  0  0  0  0  0  0  0
    1.5012    3.6242   -0.1032 H   0  0  0  0  0  0  0  0  0  0  0  0
    1.8780    2.5104   -1.4126 H   0  0  0  0  0  0  0  0  0  0  0  0
    1.3803   -0.7229    2.0625 H   0  0  0  0  0  0  0  0  0  0  0  0
    2.1783   -1.7487    0.8876 H   0  0  0  0  0  0  0  0  0  0  0  0
   -3.5198    2.6138   -0.5644 H   0  0  0  0  0  0  0  0  0  0  0  0
   -2.8476    1.5627   -1.7887 H   0  0  0  0  0  0  0  0  0  0  0  0
    4.0051    2.5847   -0.6038 H   0  0  0  0  0  0  0  0  0  0  0  0
    3.5103    3.0739    1.0072 H   0  0  0  0  0  0  0  0  0  0  0  0
    0.5134   -0.0249   -2.0856 H   0  0  0  0  0  0  0  0  0  0  0  0
    0.3003    1.7050   -2.3761 H   0  0  0  0  0  0  0  0  0  0  0  0
   -1.0516    0.6496   -2.4379 H   0  0  0  0  0  0  0  0  0  0  0  0
   -2.3100   -1.5768    2.0213 H   0  0  0  0  0  0  0  0  0  0  0  0
   -2.5579   -2.7448    0.7534 H   0  0  0  0  0  0  0  0  0  0  0  0
    0.2259    1.2638    2.4369 H   0  0  0  0  0  0  0  0  0  0  0  0
    0.1899    2.9288    1.8457 H   0  0  0  0  0  0  0  0  0  0  0  0
    1.6865    2.2094    2.3535 H   0  0  0  0  0  0  0  0  0  0  0  0
   -2.4623   -0.7198   -2.2128 H   0  0  0  0  0  0  0  0  0  0  0  0
   -3.3674   -2.0096   -1.4635 H   0  0  0  0  0  0  0  0  0  0  0  0
   -1.6286   -2.1042   -1.5071 H   0  0  0  0  0  0  0  0  0  0  0  0
   -4.5208   -1.1123    2.3014 H   0  0  0  0  0  0  0  0  0  0  0  0
   -4.6576   -2.7486    1.6708 H   0  0  0  0  0  0  0  0  0  0  0  0
    5.1258    0.8896   -1.7520 H   0  0  0  0  0  0  0  0  0  0  0  0
    3.6092    0.0353   -1.7965 H   0  0  0  0  0  0  0  0  0  0  0  0
   -6.8278    0.9188    0.5059 H   0  0  0  0  0  0  0  0  0  0  0  0
   -5.5494    1.1047    1.7008 H   0  0  0  0  0  0  0  0  0  0  0  0
   -5.6372    2.2142    0.3232 H   0  0  0  0  0  0  0  0  0  0  0  0
   -4.7276   -0.3189   -2.3232 H   0  0  0  0  0  0  0  0  0  0  0  0
   -6.3481    0.1002   -1.8033 H   0  0  0  0  0  0  0  0  0  0  0  0
   -5.1630    1.3744   -2.0394 H   0  0  0  0  0  0  0  0  0  0  0  0
    5.8009    0.7419    1.9018 H   0  0  0  0  0  0  0  0  0  0  0  0
    6.0102    1.7684    0.4670 H   0  0  0  0  0  0  0  0  0  0  0  0
    6.7064    0.1407    0.5309 H   0  0  0  0  0  0  0  0  0  0  0  0
    6.3480   -1.1546   -1.5812 H   0  0  0  0  0  0  0  0  0  0  0  0
    4.8891   -1.7339   -2.4550 H   0  0  0  0  0  0  0  0  0  0  0  0
  1 21  1  0  0  0  0
  1 30  1  0  0  0  0
  2 24  2  0  0  0  0
  3 30  2  0  0  0  0
  4  5  1  0  0  0  0
  4  6  1  0  0  0  0
  4 11  1  0  0  0  0
  4 17  1  0  0  0  0
  5  7  1  0  0  0  0
  5 13  1  0  0  0  0
  5 20  1  0  0  0  0
  6  8  1  0  0  0  0
  6 12  1  0  0  0  0
  6 31  1  0  0  0  0
  7 10  1  0  0  0  0
  7 14  1  0  0  0  0
  7 32  1  0  0  0  0
  8  9  1  0  0  0  0
  8 18  1  0  0  0  0
  8 22  1  0  0  0  0
  9 15  1  0  0  0  0
  9 19  1  0  0  0  0
  9 33  1  0  0  0  0
 10 16  1  0  0  0  0
 10 21  1  0  0  0  0
 10 34  1  0  0  0  0
 11 15  1  0  0  0  0
 11 35  1  0  0  0  0
 11 36  1  0  0  0  0
 12 14  1  0  0  0  0
 12 37  1  0  0  0  0
 12 38  1  0  0  0  0
 13 16  1  0  0  0  0
 13 39  1  0  0  0  0
 13 40  1  0  0  0  0
 14 41  1  0  0  0  0
 14 42  1  0  0  0  0
 15 43  1  0  0  0  0
 15 44  1  0  0  0  0
 16 45  1  0  0  0  0
 16 46  1  0  0  0  0
 17 47  1  0  0  0  0
 17 48  1  0  0  0  0
 17 49  1  0  0  0  0
 18 23  1  0  0  0  0
 18 50  1  0  0  0  0
 18 51  1  0  0  0  0
 19 24  1  0  0  0  0
 19 26  1  0  0  0  0
 19 27  1  0  0  0  0
 20 52  1  0  0  0  0
 20 53  1  0  0  0  0
 20 54  1  0  0  0  0
 21 25  1  0  0  0  0
 21 28  1  0  0  0  0
 22 55  1  0  0  0  0
 22 56  1  0  0  0  0
 22 57  1  0  0  0  0
 23 24  1  0  0  0  0
 23 58  1  0  0  0  0
 23 59  1  0  0  0  0
 25 29  1  0  0  0  0
 25 60  1  0  0  0  0
 25 61  1  0  0  0  0
 26 62  1  0  0  0  0
 26 63  1  0  0  0  0
 26 64  1  0  0  0  0
 27 65  1  0  0  0  0
 27 66  1  0  0  0  0
 27 67  1  0  0  0  0
 28 68  1  0  0  0  0
 28 69  1  0  0  0  0
 28 70  1  0  0  0  0
 29 30  1  0  0  0  0
 29 71  1  0  0  0  0
 29 72  1  0  0  0  0
M  END
> <PUBCHEM_COMPOUND_CID>
44421647

> <PUBCHEM_CONFORMER_RMSD>
0.8

> <PUBCHEM_CONFORMER_DIVERSEORDER>
1
4
2
3

> <PUBCHEM_MMFF94_PARTIAL_CHARGES>
9
1 -0.43
19 0.06
2 -0.57
21 0.28
23 0.06
24 0.45
29 0.06
3 -0.57
30 0.66

> <PUBCHEM_EFFECTIVE_ROTOR_COUNT>
3.8

> <PUBCHEM_PHARMACOPHORE_FEATURES>
8
1 2 acceptor
1 3 acceptor
3 19 26 27 hydrophobe
5 1 21 25 29 30 rings
5 5 7 10 13 16 rings
6 4 5 6 7 12 14 rings
6 4 6 8 9 11 15 rings
6 8 9 18 19 23 24 rings

> <PUBCHEM_HEAVY_ATOM_COUNT>
30

> <PUBCHEM_ATOM_DEF_STEREO_COUNT>
8

> <PUBCHEM_ATOM_UDEF_STEREO_COUNT>
0

> <PUBCHEM_BOND_DEF_STEREO_COUNT>
0

> <PUBCHEM_BOND_UDEF_STEREO_COUNT>
0

> <PUBCHEM_ISOTOPIC_ATOM_COUNT>
0

> <PUBCHEM_COMPONENT_COUNT>
1

> <PUBCHEM_CACTVS_TAUTO_COUNT>
4

> <PUBCHEM_CONFORMER_ID>
02A5D20F00000001

> <PUBCHEM_MMFF94_ENERGY>
140.1526

> <PUBCHEM_FEATURE_SELFOVERLAP>
40.681

> <PUBCHEM_SHAPE_FINGERPRINT>
10673678 19 17898584326432599652
11135609 12 17677350423465013451
11578080 2 12613905863162053980
117089 54 17555753010225875134
11796584 16 18114175354302226867
12011746 2 18335132073434110805
12166972 35 18130509725331326617
12236239 1 14979959189822087564
12422481 6 16199603363280181004
12516196 113 18202845469846040560
12596602 18 15410886375328111910
12633257 1 17203335571477965613
12760667 363 18272090431530652206
13402501 40 18409731759297764051
13533116 47 18131072679305434376
13544653 18 18342460343944442216
13583140 156 17058639892506898152
13757389 114 16175112171516951708
13782708 43 18341050809004043043
13914758 101 17489587823702071865
14341114 176 18409733945515109217
14840074 17 12829490350694340539
14856354 85 16370729253442312419
14866123 147 17909272373321535096
14910302 57 18114176377068763726
15183329 4 18408324367307772393
15196674 1 18335700589586156273
15361156 5 18334300897918742622
15664445 248 17458913746878399508
15788980 27 17489871548566308349
17349148 13 16558755632653031565
17844677 252 18411142462912723713
17909252 39 18268994190103202314
1813 80 17676487263302383012
19319366 153 17167855357668353770
20567600 75 18410291415269297269
20832881 197 18412547587349153336
21033648 29 18059278938241451817
21033650 10 16806736058320189044
21267235 1 18261679268129063195
21279426 13 18336543820309430805
21682296 61 18201445718276626406
21703447 108 16554220310423768439
221357 26 18409448089565949658
2215653 11 18409726253307550127
22182313 1 18263344997642659692
22393880 68 18041269985423355389
23522609 53 18122377681034405725
23559900 14 18335133219963804713
23569914 152 17474357220645235071
23569943 247 18195809557523067547
3004659 81 18114465574776844170
335352 9 18335138679341874909
345986 75 17632016356234411602
34797466 226 17095815385579891214
350125 39 18408603669021053457
404807 14 16551459028699795239
4073 2 18187931732507162810
437815 12 18273219677111322032
46194498 28 18040715909347362316
463206 1 18202277039609853974
465052 167 18131356297781971326
5104073 3 18130504120530919888
59755656 215 18187641363207121685
8509985 295 15769776866449546042
9709674 26 18262237836788392731

> <PUBCHEM_SHAPE_MULTIPOLES>
599.78
14.04
2.71
1.41
1.11
0.25
-0.26
5.72
-1
-1.5
0.16
0.12
0
1.26

> <PUBCHEM_SHAPE_SELFOVERLAP>
1284.582

> <PUBCHEM_SHAPE_VOLUME>
333.9

> <PUBCHEM_COORDINATE_TYPE>
2
5
10

$$$$
