276591
  -OEChem-09102015583D

 47 50  0     1  0  0  0  0  0999 V2000
    4.9763    1.1682   -0.0743 O   0  0  0  0  0  0  0  0  0  0  0  0
   -4.1632    1.2850   -1.4203 O   0  0  0  0  0  0  0  0  0  0  0  0
   -0.0987    0.0779    0.6766 C   0  0  1  0  0  0  0  0  0  0  0  0
    2.6601    0.5372   -0.4876 C   0  0  1  0  0  0  0  0  0  0  0  0
    2.0953   -0.8911   -0.2855 C   0  0  2  0  0  0  0  0  0  0  0  0
   -1.6770   -0.1266    0.8059 C   0  0  2  0  0  0  0  0  0  0  0  0
    0.5862   -0.9051   -0.2620 C   0  0  0  0  0  0  0  0  0  0  0  0
    0.3862    1.4839    0.2630 C   0  0  0  0  0  0  0  0  0  0  0  0
    1.9160    1.5998    0.3429 C   0  0  0  0  0  0  0  0  0  0  0  0
    2.7756   -1.3972    0.9912 C   0  0  0  0  0  0  0  0  0  0  0  0
   -2.2938   -0.8799   -0.3781 C   0  0  0  0  0  0  0  0  0  0  0  0
   -2.4127    1.2285    1.0000 C   0  0  0  0  0  0  0  0  0  0  0  0
    4.0656    0.3626    0.0771 C   0  0  0  0  0  0  0  0  0  0  0  0
    4.2190   -0.9268    0.8478 C   0  0  0  0  0  0  0  0  0  0  0  0
    2.7098    0.9171   -1.9688 C   0  0  0  0  0  0  0  0  0  0  0  0
   -1.9093   -1.0128    2.0619 C   0  0  0  0  0  0  0  0  0  0  0  0
   -0.1090   -1.6486   -1.1364 C   0  0  0  0  0  0  0  0  0  0  0  0
   -3.8035   -0.9040   -0.5022 C   0  0  0  0  0  0  0  0  0  0  0  0
   -3.9407    1.1303    0.9892 C   0  0  0  0  0  0  0  0  0  0  0  0
   -4.4449    0.4642   -0.2882 C   0  0  1  0  0  0  0  0  0  0  0  0
   -1.5372   -1.5626   -1.2521 C   0  0  0  0  0  0  0  0  0  0  0  0
    0.3102   -0.0917    1.6819 H   0  0  0  0  0  0  0  0  0  0  0  0
    2.4535   -1.5297   -1.1077 H   0  0  0  0  0  0  0  0  0  0  0  0
   -0.0229    2.2447    0.9366 H   0  0  0  0  0  0  0  0  0  0  0  0
    0.0461    1.7275   -0.7512 H   0  0  0  0  0  0  0  0  0  0  0  0
    2.2180    2.6063    0.0262 H   0  0  0  0  0  0  0  0  0  0  0  0
    2.2113    1.5277    1.3988 H   0  0  0  0  0  0  0  0  0  0  0  0
    2.7152   -2.4863    1.0865 H   0  0  0  0  0  0  0  0  0  0  0  0
    2.3351   -0.9634    1.8956 H   0  0  0  0  0  0  0  0  0  0  0  0
   -2.1377    1.9222    0.1960 H   0  0  0  0  0  0  0  0  0  0  0  0
   -2.0978    1.6945    1.9422 H   0  0  0  0  0  0  0  0  0  0  0  0
    4.8094   -1.6278    0.2510 H   0  0  0  0  0  0  0  0  0  0  0  0
    4.6873   -0.7536    1.8190 H   0  0  0  0  0  0  0  0  0  0  0  0
    3.3212    0.2088   -2.5397 H   0  0  0  0  0  0  0  0  0  0  0  0
    1.7106    0.9353   -2.4154 H   0  0  0  0  0  0  0  0  0  0  0  0
    3.1591    1.9071   -2.1074 H   0  0  0  0  0  0  0  0  0  0  0  0
   -2.9645   -1.2575    2.2202 H   0  0  0  0  0  0  0  0  0  0  0  0
   -1.3669   -1.9629    1.9836 H   0  0  0  0  0  0  0  0  0  0  0  0
   -1.5581   -0.5054    2.9682 H   0  0  0  0  0  0  0  0  0  0  0  0
    0.3948   -2.3080   -1.8363 H   0  0  0  0  0  0  0  0  0  0  0  0
   -4.0972   -1.2851   -1.4887 H   0  0  0  0  0  0  0  0  0  0  0  0
   -4.1997   -1.6060    0.2417 H   0  0  0  0  0  0  0  0  0  0  0  0
   -4.2921    0.5758    1.8662 H   0  0  0  0  0  0  0  0  0  0  0  0
   -4.3520    2.1442    1.0650 H   0  0  0  0  0  0  0  0  0  0  0  0
   -5.5335    0.3485   -0.2389 H   0  0  0  0  0  0  0  0  0  0  0  0
   -1.9887   -2.1136   -2.0716 H   0  0  0  0  0  0  0  0  0  0  0  0
   -4.5871    2.1470   -1.2697 H   0  0  0  0  0  0  0  0  0  0  0  0
  1 13  2  0  0  0  0
  2 20  1  0  0  0  0
  2 47  1  0  0  0  0
  3  6  1  0  0  0  0
  3  7  1  0  0  0  0
  3  8  1  0  0  0  0
  3 22  1  0  0  0  0
  4  5  1  0  0  0  0
  4  9  1  0  0  0  0
  4 13  1  0  0  0  0
  4 15  1  0  0  0  0
  5  7  1  0  0  0  0
  5 10  1  0  0  0  0
  5 23  1  0  0  0  0
  6 11  1  0  0  0  0
  6 12  1  0  0  0  0
  6 16  1  0  0  0  0
  7 17  2  0  0  0  0
  8  9  1  0  0  0  0
  8 24  1  0  0  0  0
  8 25  1  0  0  0  0
  9 26  1  0  0  0  0
  9 27  1  0  0  0  0
 10 14  1  0  0  0  0
 10 28  1  0  0  0  0
 10 29  1  0  0  0  0
 11 18  1  0  0  0  0
 11 21  2  0  0  0  0
 12 19  1  0  0  0  0
 12 30  1  0  0  0  0
 12 31  1  0  0  0  0
 13 14  1  0  0  0  0
 14 32  1  0  0  0  0
 14 33  1  0  0  0  0
 15 34  1  0  0  0  0
 15 35  1  0  0  0  0
 15 36  1  0  0  0  0
 16 37  1  0  0  0  0
 16 38  1  0  0  0  0
 16 39  1  0  0  0  0
 17 21  1  0  0  0  0
 17 40  1  0  0  0  0
 18 20  1  0  0  0  0
 18 41  1  0  0  0  0
 18 42  1  0  0  0  0
 19 20  1  0  0  0  0
 19 43  1  0  0  0  0
 19 44  1  0  0  0  0
 20 45  1  0  0  0  0
 21 46  1  0  0  0  0
M  END
> <PUBCHEM_COMPOUND_CID>
276591

> <PUBCHEM_CONFORMER_RMSD>
0.6

> <PUBCHEM_CONFORMER_DIVERSEORDER>
2
25
27
30
34
18
32
28
35
17
8
23
11
6
33
26
24
21
22
16
10
19
7
4
20
15
3
12
5
31
29
14
1
13
9

> <PUBCHEM_MMFF94_PARTIAL_CHARGES>
17
1 -0.57
11 -0.28
13 0.45
14 0.06
17 -0.15
18 0.14
2 -0.68
20 0.28
21 -0.15
3 0.14
4 0.06
40 0.15
46 0.15
47 0.4
5 0.14
6 0.14
7 -0.28

> <PUBCHEM_EFFECTIVE_ROTOR_COUNT>
1.6

> <PUBCHEM_PHARMACOPHORE_FEATURES>
7
1 1 acceptor
1 2 acceptor
1 2 donor
5 4 5 10 13 14 rings
6 3 4 5 7 8 9 rings
6 3 6 7 11 17 21 rings
6 6 11 12 18 19 20 rings

> <PUBCHEM_HEAVY_ATOM_COUNT>
21

> <PUBCHEM_ATOM_DEF_STEREO_COUNT>
0

> <PUBCHEM_ATOM_UDEF_STEREO_COUNT>
5

> <PUBCHEM_BOND_DEF_STEREO_COUNT>
0

> <PUBCHEM_BOND_UDEF_STEREO_COUNT>
0

> <PUBCHEM_ISOTOPIC_ATOM_COUNT>
0

> <PUBCHEM_COMPONENT_COUNT>
1

> <PUBCHEM_CACTVS_TAUTO_COUNT>
2

> <PUBCHEM_CONFORMER_ID>
0004386F00000002

> <PUBCHEM_MMFF94_ENERGY>
57.9182

> <PUBCHEM_FEATURE_SELFOVERLAP>
35.71

> <PUBCHEM_SHAPE_FINGERPRINT>
10062212 137 18342733022923284019
10498660 4 17846505819925734240
10646746 165 17918273151515518960
10863032 1 17386582382327902214
11543360 7 13758068589127108923
11578080 2 18122591016771475888
12236239 1 18410570704508762386
12403814 3 18334856100321062285
12507557 5 18411134757857322273
12592029 89 18272095976570977235
12633257 1 16370720478560252336
12670545 2 18343862216695243109
12670546 56 17894904105571897721
128620 24 16630526232665390693
13140716 1 17701534237215449883
13224815 77 18342186573880578339
13538477 17 18270956950959182878
13583140 156 18188214307053555905
13675066 3 18040999539933074000
14289901 80 17386295392876986187
14739800 52 17774139337036991248
14993402 34 18131351916398260274
15196674 1 18273497857647598086
15209289 33 10665233652596268049
15238133 3 17386010529165960772
15375358 24 17060337439791922486
15775835 57 18413673525826305270
15788980 27 18260547809801128026
16752209 62 18129672906529909976
16945 1 17988094355961100163
17349148 13 17203889669203109484
1813 80 17970351417535681870
18186145 218 18040726822394822787
192875 21 17846491526422396153
19862831 5 16988849367097042889
200 152 15769776866291361757
20645476 183 18342735268933003127
20715895 44 18052250696871843829
21033648 29 16877933945670757669
21267235 1 18201164337762646847
23402539 116 17132112433381992336
23419403 2 14890125404951659627
23557571 272 16415195745146708335
23559900 14 18337675209443460250
2748010 2 17343487097535082903
2838139 119 17897708900338659701
296302 2 18333732429122295130
34934 24 18411135853253324416
4340502 62 17749116560969779515
474 4 18044093682092980500
5104073 3 18412824702749715618
74978 22 18200312246331371416
8272917 22 18187364272949382794

> <PUBCHEM_SHAPE_MULTIPOLES>
420.43
8.67
1.76
1.5
0.75
0.02
0.02
-2.02
0.35
-0.14
0.14
-0.25
0.13
-0.69

> <PUBCHEM_SHAPE_SELFOVERLAP>
910.147

> <PUBCHEM_SHAPE_VOLUME>
228.8

> <PUBCHEM_COORDINATE_TYPE>
2
5
10

$$$$
