10906239
  -OEChem-09102013303D

 68 72  0     1  0  0  0  0  0999 V2000
   -0.7078   -2.0253   -0.3915 O   0  0  0  0  0  0  0  0  0  0  0  0
   -5.7185    1.5545   -1.6349 O   0  0  0  0  0  0  0  0  0  0  0  0
    6.5983    0.2021   -1.5911 O   0  0  0  0  0  0  0  0  0  0  0  0
   -1.8984   -3.9534    0.0581 O   0  0  0  0  0  0  0  0  0  0  0  0
   -0.0020   -0.2636    1.1426 C   0  0  2  0  0  0  0  0  0  0  0  0
   -0.4687    0.9356    0.2376 C   0  0  1  0  0  0  0  0  0  0  0  0
   -2.0063    1.3197    0.3628 C   0  0  1  0  0  0  0  0  0  0  0  0
   -2.8293    0.0132    0.0642 C   0  0  1  0  0  0  0  0  0  0  0  0
    2.3701    0.3671    0.1034 C   0  0  1  0  0  0  0  0  0  0  0  0
    1.4487   -0.6198    0.8043 C   0  0  0  0  0  0  0  0  0  0  0  0
   -0.9411   -1.4834    0.9150 C   0  0  1  0  0  0  0  0  0  0  0  0
    0.5161    2.1431    0.2704 C   0  0  0  0  0  0  0  0  0  0  0  0
   -2.4355   -1.1349    1.0213 C   0  0  0  0  0  0  0  0  0  0  0  0
    1.9930    1.7936    0.5198 C   0  0  0  0  0  0  0  0  0  0  0  0
   -4.3701    0.2173   -0.1211 C   0  0  0  0  0  0  0  0  0  0  0  0
    3.7411   -0.0893    0.7001 C   0  0  1  0  0  0  0  0  0  0  0  0
   -0.0045    0.0900    2.6520 C   0  0  0  0  0  0  0  0  0  0  0  0
   -2.3479    1.9779    1.7184 C   0  0  0  0  0  0  0  0  0  0  0  0
   -2.3904    2.3441   -0.6957 C   0  0  0  0  0  0  0  0  0  0  0  0
    2.1257   -1.7199    1.1786 C   0  0  0  0  0  0  0  0  0  0  0  0
    3.5863   -1.6122    0.8748 C   0  0  0  0  0  0  0  0  0  0  0  0
    2.3329    0.1957   -1.4319 C   0  0  0  0  0  0  0  0  0  0  0  0
   -4.6269    1.3842   -1.0888 C   0  0  0  0  0  0  0  0  0  0  0  0
   -3.5534    2.3705   -1.3549 C   0  0  0  0  0  0  0  0  0  0  0  0
   -5.1352   -1.0105   -0.6362 C   0  0  0  0  0  0  0  0  0  0  0  0
   -5.0085    0.6154    1.2336 C   0  0  0  0  0  0  0  0  0  0  0  0
    4.9396    0.2801   -0.0842 C   0  0  0  0  0  0  0  0  0  0  0  0
   -1.4636   -3.1115   -0.7160 C   0  0  0  0  0  0  0  0  0  0  0  0
    5.7224    1.4458    0.0635 C   0  0  0  0  0  0  0  0  0  0  0  0
    5.5089   -0.4452   -1.1005 C   0  0  0  0  0  0  0  0  0  0  0  0
    6.7214    1.3519   -0.8774 C   0  0  0  0  0  0  0  0  0  0  0  0
   -1.6964   -3.1328   -2.1964 C   0  0  0  0  0  0  0  0  0  0  0  0
   -0.3912    0.5605   -0.7934 H   0  0  0  0  0  0  0  0  0  0  0  0
   -2.5025   -0.3172   -0.9355 H   0  0  0  0  0  0  0  0  0  0  0  0
   -0.7093   -2.2654    1.6510 H   0  0  0  0  0  0  0  0  0  0  0  0
    0.2176    2.8906    1.0113 H   0  0  0  0  0  0  0  0  0  0  0  0
    0.4637    2.6530   -0.7001 H   0  0  0  0  0  0  0  0  0  0  0  0
   -2.6623   -0.8699    2.0574 H   0  0  0  0  0  0  0  0  0  0  0  0
   -3.0600   -2.0064    0.8180 H   0  0  0  0  0  0  0  0  0  0  0  0
    2.6294    2.5259    0.0070 H   0  0  0  0  0  0  0  0  0  0  0  0
    2.1976    1.9339    1.5896 H   0  0  0  0  0  0  0  0  0  0  0  0
    3.8542    0.3425    1.7080 H   0  0  0  0  0  0  0  0  0  0  0  0
   -1.0062    0.1607    3.0749 H   0  0  0  0  0  0  0  0  0  0  0  0
    0.5031   -0.6821    3.2442 H   0  0  0  0  0  0  0  0  0  0  0  0
    0.5058    1.0355    2.8586 H   0  0  0  0  0  0  0  0  0  0  0  0
   -2.6969    1.2673    2.4690 H   0  0  0  0  0  0  0  0  0  0  0  0
   -1.4866    2.4902    2.1560 H   0  0  0  0  0  0  0  0  0  0  0  0
   -3.1144    2.7566    1.6313 H   0  0  0  0  0  0  0  0  0  0  0  0
   -1.6945    3.1521   -0.9037 H   0  0  0  0  0  0  0  0  0  0  0  0
    1.7015   -2.5548    1.7175 H   0  0  0  0  0  0  0  0  0  0  0  0
    4.1958   -1.9698    1.7113 H   0  0  0  0  0  0  0  0  0  0  0  0
    3.8181   -2.2126   -0.0096 H   0  0  0  0  0  0  0  0  0  0  0  0
    3.0082    0.9028   -1.9262 H   0  0  0  0  0  0  0  0  0  0  0  0
    2.6152   -0.8177   -1.7387 H   0  0  0  0  0  0  0  0  0  0  0  0
    1.3435    0.3776   -1.8565 H   0  0  0  0  0  0  0  0  0  0  0  0
   -3.7627    3.1534   -2.0757 H   0  0  0  0  0  0  0  0  0  0  0  0
   -4.7018   -1.3663   -1.5777 H   0  0  0  0  0  0  0  0  0  0  0  0
   -5.1101   -1.8376    0.0803 H   0  0  0  0  0  0  0  0  0  0  0  0
   -6.1911   -0.7900   -0.8315 H   0  0  0  0  0  0  0  0  0  0  0  0
   -4.8658    1.6656    1.4897 H   0  0  0  0  0  0  0  0  0  0  0  0
   -6.1000    0.5028    1.1779 H   0  0  0  0  0  0  0  0  0  0  0  0
   -4.6835   -0.0170    2.0633 H   0  0  0  0  0  0  0  0  0  0  0  0
    5.5815    2.2563    0.7643 H   0  0  0  0  0  0  0  0  0  0  0  0
    5.2825   -1.3854   -1.5821 H   0  0  0  0  0  0  0  0  0  0  0  0
    7.5519    1.9858   -1.1518 H   0  0  0  0  0  0  0  0  0  0  0  0
   -0.7392   -3.1863   -2.7212 H   0  0  0  0  0  0  0  0  0  0  0  0
   -2.2523   -2.2427   -2.5002 H   0  0  0  0  0  0  0  0  0  0  0  0
   -2.2854   -4.0168   -2.4574 H   0  0  0  0  0  0  0  0  0  0  0  0
  1 11  1  0  0  0  0
  1 28  1  0  0  0  0
  2 23  2  0  0  0  0
  3 30  1  0  0  0  0
  3 31  1  0  0  0  0
  4 28  2  0  0  0  0
  5  6  1  0  0  0  0
  5 10  1  0  0  0  0
  5 11  1  0  0  0  0
  5 17  1  0  0  0  0
  6  7  1  0  0  0  0
  6 12  1  0  0  0  0
  6 33  1  0  0  0  0
  7  8  1  0  0  0  0
  7 18  1  0  0  0  0
  7 19  1  0  0  0  0
  8 13  1  0  0  0  0
  8 15  1  0  0  0  0
  8 34  1  0  0  0  0
  9 10  1  0  0  0  0
  9 14  1  0  0  0  0
  9 16  1  0  0  0  0
  9 22  1  0  0  0  0
 10 20  2  0  0  0  0
 11 13  1  0  0  0  0
 11 35  1  0  0  0  0
 12 14  1  0  0  0  0
 12 36  1  0  0  0  0
 12 37  1  0  0  0  0
 13 38  1  0  0  0  0
 13 39  1  0  0  0  0
 14 40  1  0  0  0  0
 14 41  1  0  0  0  0
 15 23  1  0  0  0  0
 15 25  1  0  0  0  0
 15 26  1  0  0  0  0
 16 21  1  0  0  0  0
 16 27  1  0  0  0  0
 16 42  1  0  0  0  0
 17 43  1  0  0  0  0
 17 44  1  0  0  0  0
 17 45  1  0  0  0  0
 18 46  1  0  0  0  0
 18 47  1  0  0  0  0
 18 48  1  0  0  0  0
 19 24  2  0  0  0  0
 19 49  1  0  0  0  0
 20 21  1  0  0  0  0
 20 50  1  0  0  0  0
 21 51  1  0  0  0  0
 21 52  1  0  0  0  0
 22 53  1  0  0  0  0
 22 54  1  0  0  0  0
 22 55  1  0  0  0  0
 23 24  1  0  0  0  0
 24 56  1  0  0  0  0
 25 57  1  0  0  0  0
 25 58  1  0  0  0  0
 25 59  1  0  0  0  0
 26 60  1  0  0  0  0
 26 61  1  0  0  0  0
 26 62  1  0  0  0  0
 27 29  1  0  0  0  0
 27 30  2  0  0  0  0
 28 32  1  0  0  0  0
 29 31  2  0  0  0  0
 29 63  1  0  0  0  0
 30 64  1  0  0  0  0
 31 65  1  0  0  0  0
 32 66  1  0  0  0  0
 32 67  1  0  0  0  0
 32 68  1  0  0  0  0
M  END
> <PUBCHEM_COMPOUND_CID>
10906239

> <PUBCHEM_CONFORMER_RMSD>
0.8

> <PUBCHEM_CONFORMER_DIVERSEORDER>
1

> <PUBCHEM_MMFF94_PARTIAL_CHARGES>
28
1 -0.43
10 -0.28
11 0.28
15 0.06
16 0.18
19 -0.29
2 -0.57
20 -0.29
21 0.14
23 0.49
24 -0.14
27 -0.18
28 0.66
29 -0.15
3 -0.28
30 -0.01
31 -0.01
32 0.06
4 -0.57
49 0.15
5 0.14
50 0.15
56 0.15
63 0.15
64 0.15
65 0.15
7 0.14
9 0.14

> <PUBCHEM_EFFECTIVE_ROTOR_COUNT>
4.4

> <PUBCHEM_PHARMACOPHORE_FEATURES>
9
1 2 acceptor
1 3 acceptor
1 4 acceptor
3 15 25 26 hydrophobe
5 3 27 29 30 31 rings
5 9 10 16 20 21 rings
6 5 6 7 8 11 13 rings
6 5 6 9 10 12 14 rings
6 7 8 15 19 23 24 rings

> <PUBCHEM_HEAVY_ATOM_COUNT>
32

> <PUBCHEM_ATOM_DEF_STEREO_COUNT>
7

> <PUBCHEM_ATOM_UDEF_STEREO_COUNT>
0

> <PUBCHEM_BOND_DEF_STEREO_COUNT>
0

> <PUBCHEM_BOND_UDEF_STEREO_COUNT>
0

> <PUBCHEM_ISOTOPIC_ATOM_COUNT>
0

> <PUBCHEM_COMPONENT_COUNT>
1

> <PUBCHEM_CACTVS_TAUTO_COUNT>
1

> <PUBCHEM_CONFORMER_ID>
00A66A7F00000001

> <PUBCHEM_MMFF94_ENERGY>
123.2058

> <PUBCHEM_FEATURE_SELFOVERLAP>
45.771

> <PUBCHEM_SHAPE_FINGERPRINT>
10076449 9 18128826411536441251
10165383 225 18271815605722108617
11285246 1 17412709029410214031
11488393 25 17983297028475369247
11578080 2 17486761158925235529
11607047 403 11969374362936683725
12236239 1 17603584119221449328
12788726 201 17988361464351594000
13149001 5 17631150039623752747
13690498 29 18055635263839039446
13782708 43 15482666862545156012
13911987 19 18340762659542432221
14251757 5 18341330088708984294
14674994 50 16342850104652785415
14790565 3 18266743484820323088
15131766 46 15575861563073943358
15183329 4 18271810090651803734
15575132 122 18261108539557352365
17349148 13 17418380168862636208
17492 54 18336260159110165313
17980427 23 17241055318665111645
1813 80 14549016598231716576
18603816 31 16630526215855132062
18608769 82 17968387848159427323
19319366 153 17967809427639431954
19958102 18 18271533005047611926
20511986 3 17967801757091156008
20775438 99 16836800283899532135
21033650 10 17059503928368818400
21756936 100 17531245092929552648
22393880 68 18339919424502532656
23559900 14 17988077911127670232
23569914 152 17333083127570485502
23576562 1 18189614015922036037
34934 24 18186235121973304144
350125 39 18408042892769457537
4015057 19 17060050505801139312
4340502 62 16081092532513429120
44249763 50 18269263729434102220
484989 97 18194959867600853055
59755656 520 18131081410931755483
70251023 43 17265804491961621655
7237137 82 18340770450296543958

> <PUBCHEM_SHAPE_MULTIPOLES>
635.07
12.88
3.13
1.76
13.05
2.34
-0.12
-5.05
5.65
-2.63
0.93
-0.51
0.15
-0.28

> <PUBCHEM_SHAPE_SELFOVERLAP>
1383.312

> <PUBCHEM_SHAPE_VOLUME>
345.1

> <PUBCHEM_COORDINATE_TYPE>
2
5
10

$$$$
