5362885
  -OEChem-09102015193D

 39 40  0     1  0  0  0  0  0999 V2000
    2.4149   -0.6121   -0.0670 C   0  0  0  0  0  0  0  0  0  0  0  0
    0.8794   -0.5710   -0.3127 C   0  0  2  0  0  0  0  0  0  0  0  0
    0.9121    0.8411    0.3776 C   0  0  1  0  0  0  0  0  0  0  0  0
    2.3916    0.9229   -0.1063 C   0  0  0  0  0  0  0  0  0  0  0  0
    0.1509   -1.7066    0.3986 C   0  0  0  0  0  0  0  0  0  0  0  0
    3.1964   -1.2314   -1.2048 C   0  0  0  0  0  0  0  0  0  0  0  0
    2.9136   -1.1445    1.2634 C   0  0  0  0  0  0  0  0  0  0  0  0
    0.0160    1.9295   -0.1190 C   0  0  0  0  0  0  0  0  0  0  0  0
   -1.2971    1.6226   -0.7899 C   0  0  0  0  0  0  0  0  0  0  0  0
   -1.2189   -1.9072   -0.1770 C   0  0  0  0  0  0  0  0  0  0  0  0
   -2.4462    1.3544    0.1932 C   0  0  0  0  0  0  0  0  0  0  0  0
    0.4031    3.2005    0.0848 C   0  0  0  0  0  0  0  0  0  0  0  0
   -2.3248   -1.1798    0.0670 C   0  0  0  0  0  0  0  0  0  0  0  0
   -2.3551    0.0332    0.9662 C   0  0  0  0  0  0  0  0  0  0  0  0
   -3.6359   -1.5516   -0.5742 C   0  0  0  0  0  0  0  0  0  0  0  0
    0.6500   -0.5349   -1.3886 H   0  0  0  0  0  0  0  0  0  0  0  0
    0.8357    0.7811    1.4732 H   0  0  0  0  0  0  0  0  0  0  0  0
    2.5194    1.3533   -1.1085 H   0  0  0  0  0  0  0  0  0  0  0  0
    3.0806    1.4357    0.5728 H   0  0  0  0  0  0  0  0  0  0  0  0
    0.1009   -1.5546    1.4824 H   0  0  0  0  0  0  0  0  0  0  0  0
    0.6924   -2.6495    0.2493 H   0  0  0  0  0  0  0  0  0  0  0  0
    4.2705   -1.0415   -1.0994 H   0  0  0  0  0  0  0  0  0  0  0  0
    3.0500   -2.3167   -1.2386 H   0  0  0  0  0  0  0  0  0  0  0  0
    2.8906   -0.8313   -2.1781 H   0  0  0  0  0  0  0  0  0  0  0  0
    2.8192   -2.2347    1.3182 H   0  0  0  0  0  0  0  0  0  0  0  0
    3.9743   -0.9056    1.4059 H   0  0  0  0  0  0  0  0  0  0  0  0
    2.3765   -0.7269    2.1210 H   0  0  0  0  0  0  0  0  0  0  0  0
   -1.5906    2.4864   -1.4030 H   0  0  0  0  0  0  0  0  0  0  0  0
   -1.1885    0.8050   -1.5087 H   0  0  0  0  0  0  0  0  0  0  0  0
   -1.3036   -2.7583   -0.8515 H   0  0  0  0  0  0  0  0  0  0  0  0
   -3.3893    1.3784   -0.3673 H   0  0  0  0  0  0  0  0  0  0  0  0
   -2.5082    2.1776    0.9168 H   0  0  0  0  0  0  0  0  0  0  0  0
    1.3340    3.4435    0.5864 H   0  0  0  0  0  0  0  0  0  0  0  0
   -0.2121    4.0341   -0.2386 H   0  0  0  0  0  0  0  0  0  0  0  0
   -3.2247   -0.0470    1.6314 H   0  0  0  0  0  0  0  0  0  0  0  0
   -1.4925    0.0590    1.6385 H   0  0  0  0  0  0  0  0  0  0  0  0
   -4.4003   -1.7141    0.1926 H   0  0  0  0  0  0  0  0  0  0  0  0
   -3.5634   -2.4711   -1.1648 H   0  0  0  0  0  0  0  0  0  0  0  0
   -3.9774   -0.7569   -1.2445 H   0  0  0  0  0  0  0  0  0  0  0  0
  1  2  1  0  0  0  0
  1  4  1  0  0  0  0
  1  6  1  0  0  0  0
  1  7  1  0  0  0  0
  2  3  1  0  0  0  0
  2  5  1  0  0  0  0
  2 16  1  0  0  0  0
  3  4  1  0  0  0  0
  3  8  1  0  0  0  0
  3 17  1  0  0  0  0
  4 18  1  0  0  0  0
  4 19  1  0  0  0  0
  5 10  1  0  0  0  0
  5 20  1  0  0  0  0
  5 21  1  0  0  0  0
  6 22  1  0  0  0  0
  6 23  1  0  0  0  0
  6 24  1  0  0  0  0
  7 25  1  0  0  0  0
  7 26  1  0  0  0  0
  7 27  1  0  0  0  0
  8  9  1  0  0  0  0
  8 12  2  0  0  0  0
  9 11  1  0  0  0  0
  9 28  1  0  0  0  0
  9 29  1  0  0  0  0
 10 13  2  0  0  0  0
 10 30  1  0  0  0  0
 11 14  1  0  0  0  0
 11 31  1  0  0  0  0
 11 32  1  0  0  0  0
 12 33  1  0  0  0  0
 12 34  1  0  0  0  0
 13 14  1  0  0  0  0
 13 15  1  0  0  0  0
 14 35  1  0  0  0  0
 14 36  1  0  0  0  0
 15 37  1  0  0  0  0
 15 38  1  0  0  0  0
 15 39  1  0  0  0  0
M  END
> <PUBCHEM_COMPOUND_CID>
5362885

> <PUBCHEM_CONFORMER_RMSD>
0.6

> <PUBCHEM_CONFORMER_DIVERSEORDER>
1
14
13
6
8
5
16
11
4
15
7
10
12
9
2
3

> <PUBCHEM_MMFF94_PARTIAL_CHARGES>
12
10 -0.29
12 -0.3
13 -0.28
14 0.14
15 0.14
3 0.12
30 0.15
33 0.15
34 0.15
5 0.14
8 -0.25
9 0.14

> <PUBCHEM_EFFECTIVE_ROTOR_COUNT>
1.2

> <PUBCHEM_PHARMACOPHORE_FEATURES>
2
3 1 6 7 hydrophobe
4 1 2 3 4 rings

> <PUBCHEM_HEAVY_ATOM_COUNT>
15

> <PUBCHEM_ATOM_DEF_STEREO_COUNT>
0

> <PUBCHEM_ATOM_UDEF_STEREO_COUNT>
2

> <PUBCHEM_BOND_DEF_STEREO_COUNT>
1

> <PUBCHEM_BOND_UDEF_STEREO_COUNT>
0

> <PUBCHEM_ISOTOPIC_ATOM_COUNT>
0

> <PUBCHEM_COMPONENT_COUNT>
1

> <PUBCHEM_CACTVS_TAUTO_COUNT>
1

> <PUBCHEM_CONFORMER_ID>
0051D4C500000001

> <PUBCHEM_MMFF94_ENERGY>
33.8171

> <PUBCHEM_FEATURE_SELFOVERLAP>
10.148

> <PUBCHEM_SHAPE_FINGERPRINT>
10967382 1 18122343750839317601
10989021 7 18339923835180919791
11086676 242 18334021583305372072
11132069 177 18341891848866455955
11206711 2 18334294249557457087
11578080 2 17315324082041754124
12382932 28 18340767027075681929
12553582 1 18408891728203448595
13140716 1 18410009892795011664
13538477 17 18043529417752563222
1420 336 18410859875539346963
14250199 8 18197220467205889695
14251711 518 18334574607642340539
14817 1 11692589374374614984
15375462 189 18187938260883956240
15775835 57 18263089837756037139
15848700 24 18342733035444247823
15852999 172 16816553455346398420
16945 1 18122623855842754144
17990270 104 18341335594804050204
19868273 325 18409453574223368941
20388701 513 18338783530016985778
20559304 39 18267305528408511458
20645476 183 17315098595868017847
20645477 70 18123465253343565479
20871999 31 18409457963701070852
21160774 45 18192431861875187669
21501502 16 18410576210002805584
22721475 48 18337956795687945549
22802520 49 18057892337850971270
2334 1 18410012169111788896
23402539 116 18271226305364280015
23419403 2 17337536463132468473
23557571 272 18343860009578048674
23559900 14 18126566713990139622
241688 4 18410291410853147017
2748010 2 18411132532826931516
2897 32 17400925696412196173
3286 77 16988840574972323643
63268167 104 18264489666487487899
66348 1 17328303545981661441
7364860 26 18054794154464916680
7832392 63 18341900649750226715
81228 2 18338240349460411344

> <PUBCHEM_SHAPE_MULTIPOLES>
308.69
4.97
2.87
0.98
0.38
1.8
-0.04
-2.57
0.32
0.48
0.15
-0.35
-0.22
-0.11

> <PUBCHEM_SHAPE_SELFOVERLAP>
626.742

> <PUBCHEM_SHAPE_VOLUME>
181.4

> <PUBCHEM_COORDINATE_TYPE>
2
5
10

$$$$
