5368460
  -OEChem-09102014543D

 25 24  0     0  0  0  0  0  0999 V2000
    1.5442   -2.2889   -0.7582 O   0  0  0  0  0  0  0  0  0  0  0  0
    0.9669   -0.1218    0.0835 C   0  0  0  0  0  0  0  0  0  0  0  0
    1.4349    1.1494    0.0772 C   0  0  0  0  0  0  0  0  0  0  0  0
   -0.4377   -0.4687    0.3012 C   0  0  0  0  0  0  0  0  0  0  0  0
    0.5951    2.3792    0.3297 C   0  0  0  0  0  0  0  0  0  0  0  0
    2.8805    1.4971   -0.2036 C   0  0  0  0  0  0  0  0  0  0  0  0
   -0.6578   -1.6824    1.1652 C   0  0  0  0  0  0  0  0  0  0  0  0
   -1.4765    0.2206   -0.2119 C   0  0  0  0  0  0  0  0  0  0  0  0
    1.8937   -1.2650   -0.1805 C   0  0  0  0  0  0  0  0  0  0  0  0
   -2.8821   -0.0763   -0.0298 C   0  0  0  0  0  0  0  0  0  0  0  0
   -3.8611    0.6568   -0.5727 C   0  0  0  0  0  0  0  0  0  0  0  0
   -0.2698    2.1932    0.9713 H   0  0  0  0  0  0  0  0  0  0  0  0
    0.2707    2.8259   -0.6152 H   0  0  0  0  0  0  0  0  0  0  0  0
    1.1877    3.1314    0.8649 H   0  0  0  0  0  0  0  0  0  0  0  0
    3.4319    0.7131   -0.7278 H   0  0  0  0  0  0  0  0  0  0  0  0
    2.9343    2.3806   -0.8506 H   0  0  0  0  0  0  0  0  0  0  0  0
    3.4003    1.7270    0.7319 H   0  0  0  0  0  0  0  0  0  0  0  0
   -1.5310   -1.5774    1.8169 H   0  0  0  0  0  0  0  0  0  0  0  0
    0.1831   -1.8534    1.8481 H   0  0  0  0  0  0  0  0  0  0  0  0
   -0.7888   -2.5795    0.5509 H   0  0  0  0  0  0  0  0  0  0  0  0
   -1.2846    1.0610   -0.8755 H   0  0  0  0  0  0  0  0  0  0  0  0
    2.9244   -1.1460    0.1899 H   0  0  0  0  0  0  0  0  0  0  0  0
   -3.1698   -0.9391    0.5612 H   0  0  0  0  0  0  0  0  0  0  0  0
   -4.8995    0.3872   -0.4110 H   0  0  0  0  0  0  0  0  0  0  0  0
   -3.6569    1.5310   -1.1820 H   0  0  0  0  0  0  0  0  0  0  0  0
  1  9  2  0  0  0  0
  2  3  2  0  0  0  0
  2  4  1  0  0  0  0
  2  9  1  0  0  0  0
  3  5  1  0  0  0  0
  3  6  1  0  0  0  0
  4  7  1  0  0  0  0
  4  8  2  0  0  0  0
  5 12  1  0  0  0  0
  5 13  1  0  0  0  0
  5 14  1  0  0  0  0
  6 15  1  0  0  0  0
  6 16  1  0  0  0  0
  6 17  1  0  0  0  0
  7 18  1  0  0  0  0
  7 19  1  0  0  0  0
  7 20  1  0  0  0  0
  8 10  1  0  0  0  0
  8 21  1  0  0  0  0
  9 22  1  0  0  0  0
 10 11  2  0  0  0  0
 10 23  1  0  0  0  0
 11 24  1  0  0  0  0
 11 25  1  0  0  0  0
M  END
> <PUBCHEM_COMPOUND_CID>
5368460

> <PUBCHEM_CONFORMER_RMSD>
0.6

> <PUBCHEM_CONFORMER_DIVERSEORDER>
2
1
3
4
5

> <PUBCHEM_MMFF94_PARTIAL_CHARGES>
16
1 -0.57
10 -0.15
11 -0.3
2 0.01
21 0.15
22 0.06
23 0.15
24 0.15
25 0.15
3 -0.28
4 -0.14
5 0.14
6 0.14
7 0.14
8 -0.15
9 0.5

> <PUBCHEM_EFFECTIVE_ROTOR_COUNT>
3

> <PUBCHEM_PHARMACOPHORE_FEATURES>
4
1 1 acceptor
1 11 hydrophobe
1 7 hydrophobe
3 3 5 6 hydrophobe

> <PUBCHEM_HEAVY_ATOM_COUNT>
11

> <PUBCHEM_ATOM_DEF_STEREO_COUNT>
0

> <PUBCHEM_ATOM_UDEF_STEREO_COUNT>
0

> <PUBCHEM_BOND_DEF_STEREO_COUNT>
1

> <PUBCHEM_BOND_UDEF_STEREO_COUNT>
0

> <PUBCHEM_ISOTOPIC_ATOM_COUNT>
0

> <PUBCHEM_COMPONENT_COUNT>
1

> <PUBCHEM_CACTVS_TAUTO_COUNT>
1

> <PUBCHEM_CONFORMER_ID>
0051EA8C00000002

> <PUBCHEM_MMFF94_ENERGY>
30.7703

> <PUBCHEM_FEATURE_SELFOVERLAP>
20.297

> <PUBCHEM_SHAPE_FINGERPRINT>
1 1 18268709574956245508
11031198 65 18338806709507193261
12138202 97 18042405901146511435
12423570 1 11194354450613057098
12932764 1 17203600515326007469
13380535 76 18335979882255074978
14325111 11 18334010618739155089
14617773 55 17845101657699116537
15219456 202 18335430109351151043
15490181 7 17764309835685028170
16945 1 18342460378109196681
170605 34 18333725849353755881
18186145 218 18188209806370934469
20201158 50 18410012130419978062
20511035 2 17973441297942486928
20588541 1 18335142032941186500
20606313 2 18410848841826359773
20645477 70 18340197510861122215
21028194 46 18191868040106617601
21501502 16 18262794202145875819
21524375 3 18118672447122877601
21947302 44 18408602565150570153
23235685 24 18263356039708048605
23402655 69 18341602721044260997
241688 4 17907583523482012800
25 1 18409730685645480909
2748010 2 17906460174638427376
63268167 104 18412546496501696305
81228 2 17620201927309902274

> <PUBCHEM_SHAPE_MULTIPOLES>
220.51
4.62
2.29
0.83
3.85
0.16
0.09
-1.6
-1.07
-1.46
0.08
0.09
0.25
0.54

> <PUBCHEM_SHAPE_SELFOVERLAP>
425.172

> <PUBCHEM_SHAPE_VOLUME>
135.2

> <PUBCHEM_COORDINATE_TYPE>
2
5
10

$$$$
