185740
  -OEChem-09102013393D

 28 29  0     0  0  0  0  0  0999 V2000
   -0.4781   -2.0132   -0.0410 O   0  0  0  0  0  0  0  0  0  0  0  0
   -2.4980    1.6437    0.2404 O   0  0  0  0  0  0  0  0  0  0  0  0
    3.8116    0.0713   -0.1008 O   0  0  0  0  0  0  0  0  0  0  0  0
   -2.5176   -3.0473    0.0422 O   0  0  0  0  0  0  0  0  0  0  0  0
   -0.3520    0.4245    0.1314 C   0  0  0  0  0  0  0  0  0  0  0  0
    0.4712    1.5567    0.1908 C   0  0  0  0  0  0  0  0  0  0  0  0
    0.2732   -0.8190    0.0031 C   0  0  0  0  0  0  0  0  0  0  0  0
   -1.8169    0.4453    0.2056 C   0  0  0  0  0  0  0  0  0  0  0  0
    1.8643    1.4350    0.1108 C   0  0  0  0  0  0  0  0  0  0  0  0
    1.6604   -0.9561   -0.0783 C   0  0  0  0  0  0  0  0  0  0  0  0
    2.4577    0.1815   -0.0257 C   0  0  0  0  0  0  0  0  0  0  0  0
   -0.0403    2.9486    0.3914 C   0  0  0  0  0  0  0  0  0  0  0  0
   -2.5105   -0.6968    0.1782 C   0  0  0  0  0  0  0  0  0  0  0  0
   -1.8616   -2.0119    0.0592 C   0  0  0  0  0  0  0  0  0  0  0  0
   -2.8133    2.0808   -1.0676 C   0  0  0  0  0  0  0  0  0  0  0  0
    4.3499   -1.2431   -0.2397 C   0  0  0  0  0  0  0  0  0  0  0  0
    2.5030    2.3145    0.1587 H   0  0  0  0  0  0  0  0  0  0  0  0
    2.0517   -1.9627   -0.1772 H   0  0  0  0  0  0  0  0  0  0  0  0
   -0.7433    2.9999    1.2281 H   0  0  0  0  0  0  0  0  0  0  0  0
    0.7685    3.6419    0.6528 H   0  0  0  0  0  0  0  0  0  0  0  0
   -0.4950    3.3366   -0.5228 H   0  0  0  0  0  0  0  0  0  0  0  0
   -3.5954   -0.6917    0.2192 H   0  0  0  0  0  0  0  0  0  0  0  0
   -3.6426    1.4927   -1.4761 H   0  0  0  0  0  0  0  0  0  0  0  0
   -1.9599    2.0293   -1.7532 H   0  0  0  0  0  0  0  0  0  0  0  0
   -3.1408    3.1233   -1.0098 H   0  0  0  0  0  0  0  0  0  0  0  0
    4.0299   -1.7120   -1.1764 H   0  0  0  0  0  0  0  0  0  0  0  0
    4.1240   -1.8644    0.6336 H   0  0  0  0  0  0  0  0  0  0  0  0
    5.4392   -1.1428   -0.2880 H   0  0  0  0  0  0  0  0  0  0  0  0
  1  7  1  0  0  0  0
  1 14  1  0  0  0  0
  2  8  1  0  0  0  0
  2 15  1  0  0  0  0
  3 11  1  0  0  0  0
  3 16  1  0  0  0  0
  4 14  2  0  0  0  0
  5  6  1  0  0  0  0
  5  7  2  0  0  0  0
  5  8  1  0  0  0  0
  6  9  2  0  0  0  0
  6 12  1  0  0  0  0
  7 10  1  0  0  0  0
  8 13  2  0  0  0  0
  9 11  1  0  0  0  0
  9 17  1  0  0  0  0
 10 11  2  0  0  0  0
 10 18  1  0  0  0  0
 12 19  1  0  0  0  0
 12 20  1  0  0  0  0
 12 21  1  0  0  0  0
 13 14  1  0  0  0  0
 13 22  1  0  0  0  0
 15 23  1  0  0  0  0
 15 24  1  0  0  0  0
 15 25  1  0  0  0  0
 16 26  1  0  0  0  0
 16 27  1  0  0  0  0
 16 28  1  0  0  0  0
M  END
> <PUBCHEM_COMPOUND_CID>
185740

> <PUBCHEM_CONFORMER_RMSD>
0.6

> <PUBCHEM_CONFORMER_DIVERSEORDER>
1
2

> <PUBCHEM_MMFF94_PARTIAL_CHARGES>
19
1 -0.23
10 -0.15
11 0.08
12 0.14
13 -0.14
14 0.71
15 0.28
16 0.28
17 0.15
18 0.15
2 -0.36
22 0.15
3 -0.36
4 -0.57
5 0.03
6 -0.14
7 0.08
8 0.05
9 -0.15

> <PUBCHEM_EFFECTIVE_ROTOR_COUNT>
2

> <PUBCHEM_PHARMACOPHORE_FEATURES>
5
1 2 acceptor
1 3 acceptor
1 4 acceptor
6 1 5 7 8 13 14 rings
6 5 6 7 9 10 11 rings

> <PUBCHEM_HEAVY_ATOM_COUNT>
16

> <PUBCHEM_ATOM_DEF_STEREO_COUNT>
0

> <PUBCHEM_ATOM_UDEF_STEREO_COUNT>
0

> <PUBCHEM_BOND_DEF_STEREO_COUNT>
0

> <PUBCHEM_BOND_UDEF_STEREO_COUNT>
0

> <PUBCHEM_ISOTOPIC_ATOM_COUNT>
0

> <PUBCHEM_COMPONENT_COUNT>
1

> <PUBCHEM_CACTVS_TAUTO_COUNT>
1

> <PUBCHEM_CONFORMER_ID>
0002D58C00000001

> <PUBCHEM_MMFF94_ENERGY>
70.2968

> <PUBCHEM_FEATURE_SELFOVERLAP>
25.398

> <PUBCHEM_SHAPE_FINGERPRINT>
10967382 1 18194965145144364824
11132069 177 18411978023415140840
11206711 2 18337953501500660503
11680986 33 18198332047396660753
12032990 46 18340775930891175802
12138202 97 18262232218733818781
12730499 353 17829041019176856317
13140716 1 18413389851990064624
13380535 76 18197495134343029070
13538477 17 18261667070168689474
14115302 16 18335147440584632924
14790565 3 18052271600061370896
14911166 2 18339637820023104252
15042514 8 18337677420881969930
16945 1 17979916343160960320
193761 8 18195245744080044657
19591789 44 17620207429052166938
20588541 1 18270966721977775396
20645477 70 17762045945502351903
21339142 51 18411136909583261444
21501502 16 18267031745734149593
2334 1 18268147733141329184
23402539 116 18200021837838769429
23463225 33 18410860992542021678
23493267 7 17604998009169873480
23557571 272 18271255984236537774
23559900 14 18342737365841907058
25 1 18048024186906373261
2748010 2 18342171223862829424
3084891 72 18196363711044732210
3312278 4 18410295787698972122
353137 74 18050847719380511496
528886 8 18339636724753592257
54173680 148 18411140229608675578
7364860 26 17765999776356520864
81228 2 18118396474500290473
8809292 202 18409733966995096962
9709674 26 18200597978264692742

> <PUBCHEM_SHAPE_MULTIPOLES>
305.8
5.45
3.08
0.7
4.75
0.22
0.07
1.21
0.78
-2.26
-0.06
-0.2
-0.2
0.5

> <PUBCHEM_SHAPE_SELFOVERLAP>
657.79

> <PUBCHEM_SHAPE_VOLUME>
169.1

> <PUBCHEM_COORDINATE_TYPE>
2
5
10

$$$$
