570529
  -OEChem-09102015263D

 39 41  0     1  0  0  0  0  0999 V2000
    1.5691    0.2103   -0.7315 C   0  0  1  0  0  0  0  0  0  0  0  0
    1.0588   -0.6531    0.4602 C   0  0  1  0  0  0  0  0  0  0  0  0
    0.2693    0.5535    1.0492 C   0  0  2  0  0  0  0  0  0  0  0  0
   -0.6641    0.9830   -0.1214 C   0  0  1  0  0  0  0  0  0  0  0  0
    0.2294    0.6883   -1.3613 C   0  0  0  0  0  0  0  0  0  0  0  0
    2.2225    1.4373   -0.0464 C   0  0  0  0  0  0  0  0  0  0  0  0
    1.3418    1.6572    1.1884 C   0  0  0  0  0  0  0  0  0  0  0  0
   -2.0769    0.3174   -0.0658 C   0  0  0  0  0  0  0  0  0  0  0  0
    2.4957   -0.4502   -1.7374 C   0  0  0  0  0  0  0  0  0  0  0  0
    0.2660   -1.8660   -0.0090 C   0  0  0  0  0  0  0  0  0  0  0  0
    2.1477   -1.1938    1.4054 C   0  0  0  0  0  0  0  0  0  0  0  0
   -2.0784   -1.1076    0.5513 C   0  0  0  0  0  0  0  0  0  0  0  0
   -1.0590   -2.0635    0.0232 C   0  0  0  0  0  0  0  0  0  0  0  0
   -2.7487    0.2943   -1.4545 C   0  0  0  0  0  0  0  0  0  0  0  0
   -2.9733    1.1926    0.8496 C   0  0  0  0  0  0  0  0  0  0  0  0
   -0.2411    0.3703    1.9976 H   0  0  0  0  0  0  0  0  0  0  0  0
   -0.8189    2.0709   -0.0940 H   0  0  0  0  0  0  0  0  0  0  0  0
   -0.1837   -0.0806   -2.0191 H   0  0  0  0  0  0  0  0  0  0  0  0
    0.3662    1.5904   -1.9690 H   0  0  0  0  0  0  0  0  0  0  0  0
    2.2302    2.3189   -0.6969 H   0  0  0  0  0  0  0  0  0  0  0  0
    3.2588    1.2408    0.2502 H   0  0  0  0  0  0  0  0  0  0  0  0
    1.9225    1.5365    2.1090 H   0  0  0  0  0  0  0  0  0  0  0  0
    0.9117    2.6640    1.2095 H   0  0  0  0  0  0  0  0  0  0  0  0
    2.7892    0.2606   -2.5178 H   0  0  0  0  0  0  0  0  0  0  0  0
    3.4103   -0.8127   -1.2570 H   0  0  0  0  0  0  0  0  0  0  0  0
    2.0170   -1.3014   -2.2317 H   0  0  0  0  0  0  0  0  0  0  0  0
    0.8595   -2.6721   -0.4406 H   0  0  0  0  0  0  0  0  0  0  0  0
    2.8569   -0.4385    1.7518 H   0  0  0  0  0  0  0  0  0  0  0  0
    1.6919   -1.6362    2.2995 H   0  0  0  0  0  0  0  0  0  0  0  0
    2.7445   -1.9742    0.9181 H   0  0  0  0  0  0  0  0  0  0  0  0
   -3.0692   -1.5573    0.3963 H   0  0  0  0  0  0  0  0  0  0  0  0
   -1.9656   -1.0639    1.6427 H   0  0  0  0  0  0  0  0  0  0  0  0
   -1.4389   -3.0087   -0.3587 H   0  0  0  0  0  0  0  0  0  0  0  0
   -2.6984    1.2789   -1.9329 H   0  0  0  0  0  0  0  0  0  0  0  0
   -2.2884   -0.4357   -2.1268 H   0  0  0  0  0  0  0  0  0  0  0  0
   -3.8077    0.0218   -1.3749 H   0  0  0  0  0  0  0  0  0  0  0  0
   -3.0916    2.2028    0.4410 H   0  0  0  0  0  0  0  0  0  0  0  0
   -3.9754    0.7609    0.9545 H   0  0  0  0  0  0  0  0  0  0  0  0
   -2.5468    1.2879    1.8543 H   0  0  0  0  0  0  0  0  0  0  0  0
  1  2  1  0  0  0  0
  1  5  1  0  0  0  0
  1  6  1  0  0  0  0
  1  9  1  0  0  0  0
  2  3  1  0  0  0  0
  2 10  1  0  0  0  0
  2 11  1  0  0  0  0
  3  4  1  0  0  0  0
  3  7  1  0  0  0  0
  3 16  1  0  0  0  0
  4  5  1  0  0  0  0
  4  8  1  0  0  0  0
  4 17  1  0  0  0  0
  5 18  1  0  0  0  0
  5 19  1  0  0  0  0
  6  7  1  0  0  0  0
  6 20  1  0  0  0  0
  6 21  1  0  0  0  0
  7 22  1  0  0  0  0
  7 23  1  0  0  0  0
  8 12  1  0  0  0  0
  8 14  1  0  0  0  0
  8 15  1  0  0  0  0
  9 24  1  0  0  0  0
  9 25  1  0  0  0  0
  9 26  1  0  0  0  0
 10 13  2  0  0  0  0
 10 27  1  0  0  0  0
 11 28  1  0  0  0  0
 11 29  1  0  0  0  0
 11 30  1  0  0  0  0
 12 13  1  0  0  0  0
 12 31  1  0  0  0  0
 12 32  1  0  0  0  0
 13 33  1  0  0  0  0
 14 34  1  0  0  0  0
 14 35  1  0  0  0  0
 14 36  1  0  0  0  0
 15 37  1  0  0  0  0
 15 38  1  0  0  0  0
 15 39  1  0  0  0  0
M  END
> <PUBCHEM_COMPOUND_CID>
570529

> <PUBCHEM_CONFORMER_RMSD>
0.4

> <PUBCHEM_CONFORMER_DIVERSEORDER>
1
4
2
3

> <PUBCHEM_MMFF94_PARTIAL_CHARGES>
6
10 -0.29
12 0.14
13 -0.29
2 0.14
27 0.15
33 0.15

> <PUBCHEM_EFFECTIVE_ROTOR_COUNT>
1

> <PUBCHEM_PHARMACOPHORE_FEATURES>
3
3 8 14 15 hydrophobe
7 1 2 3 4 5 6 7 rings
7 2 3 4 8 10 12 13 rings

> <PUBCHEM_HEAVY_ATOM_COUNT>
15

> <PUBCHEM_ATOM_DEF_STEREO_COUNT>
0

> <PUBCHEM_ATOM_UDEF_STEREO_COUNT>
4

> <PUBCHEM_BOND_DEF_STEREO_COUNT>
0

> <PUBCHEM_BOND_UDEF_STEREO_COUNT>
0

> <PUBCHEM_ISOTOPIC_ATOM_COUNT>
0

> <PUBCHEM_COMPONENT_COUNT>
1

> <PUBCHEM_CACTVS_TAUTO_COUNT>
1

> <PUBCHEM_CONFORMER_ID>
0008B4A100000001

> <PUBCHEM_MMFF94_ENERGY>
74.8947

> <PUBCHEM_FEATURE_SELFOVERLAP>
15.459

> <PUBCHEM_SHAPE_FINGERPRINT>
10863032 1 18339366369747611844
11315181 36 17978832032646403118
12138202 97 18196368341256899996
12326174 3 18060125549146191976
12423570 1 11936195164985603344
12491281 212 18115885159545603252
12808571 1 16879092886365135502
13024252 1 13050482498520351950
13172582 1 18263358088517926579
13571099 52 17488726922417322281
13839132 238 18198627815987453128
14181834 199 18115008711339370846
144361 1 18041863755940675990
14817 1 12704865827223221726
15219456 202 18058463169280208132
15775835 57 18260552237870264065
15852999 172 17898538043384306675
16945 1 18263079924860715594
18186145 218 18341041952886779189
20511035 2 17968643948158343443
21501502 16 18340762762225787450
22344851 341 18264215862533429610
22802520 49 18129400317581857630
23419403 2 12383606813131192706
23559900 14 18342192051082193622
241688 4 16895680861805942171
2748010 2 18338236088826583575
4369600 1 18201164234809681436
5084963 1 17894624846998830459
528886 8 18114763558742469677
5337951 7 18131082531970882668
549884 4 18060424569080339041
5845 1 16971076611985217211
81228 2 17903083570403630963

> <PUBCHEM_SHAPE_MULTIPOLES>
308.69
3.81
1.9
1.5
1.5
0.53
-0.32
-0.6
-0.34
-0.07
0.42
-0.46
-0.11
-0.01

> <PUBCHEM_SHAPE_SELFOVERLAP>
662.294

> <PUBCHEM_SHAPE_VOLUME>
172.1

> <PUBCHEM_COORDINATE_TYPE>
2
5
10

$$$$
