543312
  -OEChem-09102016063D

 64 64  0     1  0  0  0  0  0999 V2000
    4.5776   -0.3709    0.6988 O   0  0  0  0  0  0  0  0  0  0  0  0
    3.1997    1.2755   -0.3131 O   0  0  0  0  0  0  0  0  0  0  0  0
    5.5765    1.3301   -0.7305 C   0  0  0  0  0  0  0  0  0  0  0  0
    4.4693    0.9869    0.2653 C   0  0  2  0  0  0  0  0  0  0  0  0
    5.6020    0.3442   -1.8952 C   0  0  0  0  0  0  0  0  0  0  0  0
    5.6286   -1.0879   -1.3759 C   0  0  0  0  0  0  0  0  0  0  0  0
    4.5094   -1.3149   -0.3696 C   0  0  0  0  0  0  0  0  0  0  0  0
   -1.5778   -2.8178   -0.7658 C   0  0  0  0  0  0  0  0  0  0  0  0
   -1.7786   -2.1288   -2.1192 C   0  0  0  0  0  0  0  0  0  0  0  0
    0.8715    1.7422   -0.0014 C   0  0  0  0  0  0  0  0  0  0  0  0
   -0.2618    1.8900    1.0128 C   0  0  0  0  0  0  0  0  0  0  0  0
   -1.1375   -1.8643    0.3483 C   0  0  0  0  0  0  0  0  0  0  0  0
    2.1933    1.4153    0.6804 C   0  0  0  0  0  0  0  0  0  0  0  0
   -2.8137   -0.9998   -2.1485 C   0  0  0  0  0  0  0  0  0  0  0  0
   -1.6057    2.2535    0.3743 C   0  0  0  0  0  0  0  0  0  0  0  0
   -0.9639   -2.6111    1.6740 C   0  0  0  0  0  0  0  0  0  0  0  0
   -4.2107   -1.4419   -1.6975 C   0  0  0  0  0  0  0  0  0  0  0  0
   -2.7216    2.4760    1.3970 C   0  0  0  0  0  0  0  0  0  0  0  0
   -0.5526   -1.7018    2.8339 C   0  0  0  0  0  0  0  0  0  0  0  0
   -5.2308   -0.3006   -1.7271 C   0  0  0  0  0  0  0  0  0  0  0  0
   -4.0444    2.8245    0.7128 C   0  0  0  0  0  0  0  0  0  0  0  0
   -0.4037   -2.4382    4.1557 C   0  0  0  0  0  0  0  0  0  0  0  0
   -4.8347    0.8163   -0.8586 C   0  0  0  0  0  0  0  0  0  0  0  0
   -4.4906    1.7235   -0.1509 C   0  0  0  0  0  0  0  0  0  0  0  0
    5.4452    2.3468   -1.1170 H   0  0  0  0  0  0  0  0  0  0  0  0
    6.5458    1.2832   -0.2188 H   0  0  0  0  0  0  0  0  0  0  0  0
    4.6167    1.6220    1.1477 H   0  0  0  0  0  0  0  0  0  0  0  0
    4.7146    0.4906   -2.5230 H   0  0  0  0  0  0  0  0  0  0  0  0
    6.4771    0.5319   -2.5272 H   0  0  0  0  0  0  0  0  0  0  0  0
    6.5939   -1.2653   -0.8860 H   0  0  0  0  0  0  0  0  0  0  0  0
    5.5437   -1.7962   -2.2066 H   0  0  0  0  0  0  0  0  0  0  0  0
    4.6005   -2.3150    0.0662 H   0  0  0  0  0  0  0  0  0  0  0  0
    3.5253   -1.2571   -0.8490 H   0  0  0  0  0  0  0  0  0  0  0  0
   -0.8142   -3.5963   -0.8897 H   0  0  0  0  0  0  0  0  0  0  0  0
   -2.4960   -3.3389   -0.4719 H   0  0  0  0  0  0  0  0  0  0  0  0
   -2.0672   -2.8910   -2.8539 H   0  0  0  0  0  0  0  0  0  0  0  0
   -0.8164   -1.7247   -2.4578 H   0  0  0  0  0  0  0  0  0  0  0  0
    0.6292    0.9568   -0.7279 H   0  0  0  0  0  0  0  0  0  0  0  0
    0.9817    2.6654   -0.5837 H   0  0  0  0  0  0  0  0  0  0  0  0
    0.0073    2.6672    1.7389 H   0  0  0  0  0  0  0  0  0  0  0  0
   -0.3722    0.9584    1.5765 H   0  0  0  0  0  0  0  0  0  0  0  0
   -1.8831   -1.0745    0.4884 H   0  0  0  0  0  0  0  0  0  0  0  0
   -0.1941   -1.3810    0.0699 H   0  0  0  0  0  0  0  0  0  0  0  0
    2.4630    2.2238    1.3701 H   0  0  0  0  0  0  0  0  0  0  0  0
    2.1020    0.4813    1.2469 H   0  0  0  0  0  0  0  0  0  0  0  0
   -2.4488   -0.1745   -1.5373 H   0  0  0  0  0  0  0  0  0  0  0  0
   -2.8758   -0.6161   -3.1745 H   0  0  0  0  0  0  0  0  0  0  0  0
   -1.8714    1.4586   -0.3237 H   0  0  0  0  0  0  0  0  0  0  0  0
   -1.4807    3.1665   -0.2215 H   0  0  0  0  0  0  0  0  0  0  0  0
   -0.2095   -3.3980    1.5504 H   0  0  0  0  0  0  0  0  0  0  0  0
   -1.9052   -3.1126    1.9316 H   0  0  0  0  0  0  0  0  0  0  0  0
   -4.5639   -2.2544   -2.3435 H   0  0  0  0  0  0  0  0  0  0  0  0
   -4.1667   -1.8385   -0.6766 H   0  0  0  0  0  0  0  0  0  0  0  0
   -2.8419    1.5739    2.0100 H   0  0  0  0  0  0  0  0  0  0  0  0
   -2.4422    3.2919    2.0740 H   0  0  0  0  0  0  0  0  0  0  0  0
   -1.2995   -0.9085    2.9560 H   0  0  0  0  0  0  0  0  0  0  0  0
    0.3987   -1.2134    2.5923 H   0  0  0  0  0  0  0  0  0  0  0  0
   -5.3501    0.0580   -2.7560 H   0  0  0  0  0  0  0  0  0  0  0  0
   -6.2068   -0.6845   -1.4089 H   0  0  0  0  0  0  0  0  0  0  0  0
   -3.9329    3.7421    0.1241 H   0  0  0  0  0  0  0  0  0  0  0  0
   -4.8036    3.0231    1.4777 H   0  0  0  0  0  0  0  0  0  0  0  0
    0.3611   -3.2179    4.0838 H   0  0  0  0  0  0  0  0  0  0  0  0
   -1.3476   -2.9087    4.4489 H   0  0  0  0  0  0  0  0  0  0  0  0
   -0.1087   -1.7428    4.9475 H   0  0  0  0  0  0  0  0  0  0  0  0
  1  4  1  0  0  0  0
  1  7  1  0  0  0  0
  2  4  1  0  0  0  0
  2 13  1  0  0  0  0
  3  4  1  0  0  0  0
  3  5  1  0  0  0  0
  3 25  1  0  0  0  0
  3 26  1  0  0  0  0
  4 27  1  0  0  0  0
  5  6  1  0  0  0  0
  5 28  1  0  0  0  0
  5 29  1  0  0  0  0
  6  7  1  0  0  0  0
  6 30  1  0  0  0  0
  6 31  1  0  0  0  0
  7 32  1  0  0  0  0
  7 33  1  0  0  0  0
  8  9  1  0  0  0  0
  8 12  1  0  0  0  0
  8 34  1  0  0  0  0
  8 35  1  0  0  0  0
  9 14  1  0  0  0  0
  9 36  1  0  0  0  0
  9 37  1  0  0  0  0
 10 11  1  0  0  0  0
 10 13  1  0  0  0  0
 10 38  1  0  0  0  0
 10 39  1  0  0  0  0
 11 15  1  0  0  0  0
 11 40  1  0  0  0  0
 11 41  1  0  0  0  0
 12 16  1  0  0  0  0
 12 42  1  0  0  0  0
 12 43  1  0  0  0  0
 13 44  1  0  0  0  0
 13 45  1  0  0  0  0
 14 17  1  0  0  0  0
 14 46  1  0  0  0  0
 14 47  1  0  0  0  0
 15 18  1  0  0  0  0
 15 48  1  0  0  0  0
 15 49  1  0  0  0  0
 16 19  1  0  0  0  0
 16 50  1  0  0  0  0
 16 51  1  0  0  0  0
 17 20  1  0  0  0  0
 17 52  1  0  0  0  0
 17 53  1  0  0  0  0
 18 21  1  0  0  0  0
 18 54  1  0  0  0  0
 18 55  1  0  0  0  0
 19 22  1  0  0  0  0
 19 56  1  0  0  0  0
 19 57  1  0  0  0  0
 20 23  1  0  0  0  0
 20 58  1  0  0  0  0
 20 59  1  0  0  0  0
 21 24  1  0  0  0  0
 21 60  1  0  0  0  0
 21 61  1  0  0  0  0
 22 62  1  0  0  0  0
 22 63  1  0  0  0  0
 22 64  1  0  0  0  0
 23 24  3  0  0  0  0
M  END
> <PUBCHEM_COMPOUND_CID>
543312

> <PUBCHEM_CONFORMER_RMSD>
1.6

> <PUBCHEM_CONFORMER_DIVERSEORDER>
1
108
92
57
59
21
69
50
25
14
52
56
19
42
2
62
105
86
127
88
70
79
29
80
48
51
43
67
31
44
8
114
30
47
38
87
104
36
120
117
33
5
125
91
61
111
18
122
130
93
15
107
123
99
17
129
65
74
78
106
45
126
66
34
26
46
49
85
82
9
4
6
63
27
16
103
115
68
75
113
39
35
77
22
73
13
11
37
89
97
7
60
96
101
53
81
28
84
54
94
100
20
118
119
41
90
76
110
124
112
72
55
3
121
10
102
12
32
24
95
98
109
58
64
71
23
116
83
128
40

> <PUBCHEM_MMFF94_PARTIAL_CHARGES>
9
1 -0.56
13 0.28
2 -0.56
20 0.2
21 0.2
23 -0.2
24 -0.2
4 0.56
7 0.28

> <PUBCHEM_EFFECTIVE_ROTOR_COUNT>
15.2

> <PUBCHEM_PHARMACOPHORE_FEATURES>
6
1 1 acceptor
1 2 acceptor
1 22 hydrophobe
3 10 11 15 hydrophobe
3 18 21 24 hydrophobe
6 1 3 4 5 6 7 rings

> <PUBCHEM_HEAVY_ATOM_COUNT>
24

> <PUBCHEM_ATOM_DEF_STEREO_COUNT>
0

> <PUBCHEM_ATOM_UDEF_STEREO_COUNT>
1

> <PUBCHEM_BOND_DEF_STEREO_COUNT>
0

> <PUBCHEM_BOND_UDEF_STEREO_COUNT>
0

> <PUBCHEM_ISOTOPIC_ATOM_COUNT>
0

> <PUBCHEM_COMPONENT_COUNT>
1

> <PUBCHEM_CACTVS_TAUTO_COUNT>
1

> <PUBCHEM_CONFORMER_ID>
00084A5000000001

> <PUBCHEM_MMFF94_ENERGY>
8.7875

> <PUBCHEM_FEATURE_SELFOVERLAP>
30.483

> <PUBCHEM_SHAPE_FINGERPRINT>
11093857 51 17483930724417851943
14251740 79 18130787863044737677
14251757 5 18271804678491896799
14461889 52 17489010644580118936
14931854 50 18269537430572521781
15183329 4 18202560687480787702
15322534 239 18412826871645110311
19958102 18 18342447123755881821
23559900 14 17774708853331366833
3027735 51 17703798002343831030

> <PUBCHEM_SHAPE_MULTIPOLES>
482.17
13.13
3.73
2.97
14.83
0.26
-2.83
-3.77
9.15
-3.21
-1.65
-1.44
3.18
-1.3

> <PUBCHEM_SHAPE_SELFOVERLAP>
907.862

> <PUBCHEM_SHAPE_VOLUME>
294.8

> <PUBCHEM_COORDINATE_TYPE>
2
5
10

$$$$
