5362863
  -OEChem-09102015003D

 53 52  0     0  0  0  0  0  0999 V2000
    4.7862    0.3479    0.1698 C   0  0  0  0  0  0  0  0  0  0  0  0
    3.4307    0.4099   -0.5399 C   0  0  0  0  0  0  0  0  0  0  0  0
    5.6287   -0.8209   -0.3463 C   0  0  0  0  0  0  0  0  0  0  0  0
    2.5735    1.5551    0.0035 C   0  0  0  0  0  0  0  0  0  0  0  0
    6.9884   -0.9435    0.3471 C   0  0  0  0  0  0  0  0  0  0  0  0
    1.2158    1.6830   -0.6940 C   0  0  0  0  0  0  0  0  0  0  0  0
    7.8403   -2.0964   -0.1852 C   0  0  0  0  0  0  0  0  0  0  0  0
    0.3698    2.8446   -0.1666 C   0  0  0  0  0  0  0  0  0  0  0  0
    9.1831   -2.1676    0.5262 C   0  0  0  0  0  0  0  0  0  0  0  0
   -0.9747    2.8798   -0.8348 C   0  0  0  0  0  0  0  0  0  0  0  0
   -2.0503    2.2182   -0.3821 C   0  0  0  0  0  0  0  0  0  0  0  0
   -2.0439    1.3599    0.8492 C   0  0  0  0  0  0  0  0  0  0  0  0
   -2.4028   -0.0632    0.5315 C   0  0  0  0  0  0  0  0  0  0  0  0
   -6.4197   -1.6089    0.5757 C   0  0  0  0  0  0  0  0  0  0  0  0
   -6.6535   -1.8552   -0.9173 C   0  0  0  0  0  0  0  0  0  0  0  0
   -3.6595   -0.5329    0.5488 C   0  0  0  0  0  0  0  0  0  0  0  0
   -6.0609   -0.1849    0.8935 C   0  0  0  0  0  0  0  0  0  0  0  0
   -4.8048    0.2854    0.8765 C   0  0  0  0  0  0  0  0  0  0  0  0
   -6.9464   -3.3104   -1.2557 C   0  0  0  0  0  0  0  0  0  0  0  0
    5.3287    1.2883    0.0148 H   0  0  0  0  0  0  0  0  0  0  0  0
    4.6321    0.2367    1.2499 H   0  0  0  0  0  0  0  0  0  0  0  0
    2.8978   -0.5391   -0.4055 H   0  0  0  0  0  0  0  0  0  0  0  0
    3.5851    0.5454   -1.6171 H   0  0  0  0  0  0  0  0  0  0  0  0
    5.0732   -1.7569   -0.2087 H   0  0  0  0  0  0  0  0  0  0  0  0
    5.7864   -0.7024   -1.4256 H   0  0  0  0  0  0  0  0  0  0  0  0
    2.4113    1.4076    1.0785 H   0  0  0  0  0  0  0  0  0  0  0  0
    3.1206    2.4996   -0.1075 H   0  0  0  0  0  0  0  0  0  0  0  0
    6.8298   -1.0773    1.4245 H   0  0  0  0  0  0  0  0  0  0  0  0
    7.5379   -0.0019    0.2233 H   0  0  0  0  0  0  0  0  0  0  0  0
    1.3771    1.8114   -1.7722 H   0  0  0  0  0  0  0  0  0  0  0  0
    0.6714    0.7383   -0.5705 H   0  0  0  0  0  0  0  0  0  0  0  0
    8.0077   -1.9684   -1.2608 H   0  0  0  0  0  0  0  0  0  0  0  0
    7.3077   -3.0446   -0.0494 H   0  0  0  0  0  0  0  0  0  0  0  0
    0.2905    2.8130    0.9246 H   0  0  0  0  0  0  0  0  0  0  0  0
    0.8808    3.7909   -0.3860 H   0  0  0  0  0  0  0  0  0  0  0  0
    9.0496   -2.3255    1.6012 H   0  0  0  0  0  0  0  0  0  0  0  0
    9.7768   -2.9982    0.1320 H   0  0  0  0  0  0  0  0  0  0  0  0
    9.7529   -1.2441    0.3821 H   0  0  0  0  0  0  0  0  0  0  0  0
   -1.0665    3.4714   -1.7417 H   0  0  0  0  0  0  0  0  0  0  0  0
   -2.9846    2.3138   -0.9300 H   0  0  0  0  0  0  0  0  0  0  0  0
   -2.7055    1.8041    1.5999 H   0  0  0  0  0  0  0  0  0  0  0  0
   -1.0706    1.3232    1.3469 H   0  0  0  0  0  0  0  0  0  0  0  0
   -1.5945   -0.7352    0.2536 H   0  0  0  0  0  0  0  0  0  0  0  0
   -7.3433   -1.8457    1.1206 H   0  0  0  0  0  0  0  0  0  0  0  0
   -5.6793   -2.3129    0.9721 H   0  0  0  0  0  0  0  0  0  0  0  0
   -5.7738   -1.5393   -1.4910 H   0  0  0  0  0  0  0  0  0  0  0  0
   -7.4908   -1.2360   -1.2625 H   0  0  0  0  0  0  0  0  0  0  0  0
   -3.7967   -1.5756    0.2842 H   0  0  0  0  0  0  0  0  0  0  0  0
   -6.8754    0.4958    1.1268 H   0  0  0  0  0  0  0  0  0  0  0  0
   -4.6771    1.3375    1.1047 H   0  0  0  0  0  0  0  0  0  0  0  0
   -7.1106   -3.4253   -2.3316 H   0  0  0  0  0  0  0  0  0  0  0  0
   -7.8433   -3.6585   -0.7339 H   0  0  0  0  0  0  0  0  0  0  0  0
   -6.1089   -3.9535   -0.9673 H   0  0  0  0  0  0  0  0  0  0  0  0
  1  2  1  0  0  0  0
  1  3  1  0  0  0  0
  1 20  1  0  0  0  0
  1 21  1  0  0  0  0
  2  4  1  0  0  0  0
  2 22  1  0  0  0  0
  2 23  1  0  0  0  0
  3  5  1  0  0  0  0
  3 24  1  0  0  0  0
  3 25  1  0  0  0  0
  4  6  1  0  0  0  0
  4 26  1  0  0  0  0
  4 27  1  0  0  0  0
  5  7  1  0  0  0  0
  5 28  1  0  0  0  0
  5 29  1  0  0  0  0
  6  8  1  0  0  0  0
  6 30  1  0  0  0  0
  6 31  1  0  0  0  0
  7  9  1  0  0  0  0
  7 32  1  0  0  0  0
  7 33  1  0  0  0  0
  8 10  1  0  0  0  0
  8 34  1  0  0  0  0
  8 35  1  0  0  0  0
  9 36  1  0  0  0  0
  9 37  1  0  0  0  0
  9 38  1  0  0  0  0
 10 11  2  0  0  0  0
 10 39  1  0  0  0  0
 11 12  1  0  0  0  0
 11 40  1  0  0  0  0
 12 13  1  0  0  0  0
 12 41  1  0  0  0  0
 12 42  1  0  0  0  0
 13 16  2  0  0  0  0
 13 43  1  0  0  0  0
 14 15  1  0  0  0  0
 14 17  1  0  0  0  0
 14 44  1  0  0  0  0
 14 45  1  0  0  0  0
 15 19  1  0  0  0  0
 15 46  1  0  0  0  0
 15 47  1  0  0  0  0
 16 18  1  0  0  0  0
 16 48  1  0  0  0  0
 17 18  2  0  0  0  0
 17 49  1  0  0  0  0
 18 50  1  0  0  0  0
 19 51  1  0  0  0  0
 19 52  1  0  0  0  0
 19 53  1  0  0  0  0
M  END
> <PUBCHEM_COMPOUND_CID>
5362863

> <PUBCHEM_CONFORMER_RMSD>
1.4

> <PUBCHEM_CONFORMER_DIVERSEORDER>
4
11
17
5
9
28
18
10
40
32
29
20
8
33
30
35
24
37
39
27
21
26
23
25
16
48
45
19
3
2
12
50
6
7
22
49
15
31
36
43
38
44
41
34
1
47
42
46
14
13

> <PUBCHEM_MMFF94_PARTIAL_CHARGES>
15
10 -0.29
11 -0.29
12 0.28
13 -0.29
14 0.14
16 -0.15
17 -0.29
18 -0.15
39 0.15
40 0.15
43 0.15
48 0.15
49 0.15
50 0.15
8 0.14

> <PUBCHEM_EFFECTIVE_ROTOR_COUNT>
13

> <PUBCHEM_PHARMACOPHORE_FEATURES>
2
1 19 hydrophobe
1 9 hydrophobe

> <PUBCHEM_HEAVY_ATOM_COUNT>
19

> <PUBCHEM_ATOM_DEF_STEREO_COUNT>
0

> <PUBCHEM_ATOM_UDEF_STEREO_COUNT>
0

> <PUBCHEM_BOND_DEF_STEREO_COUNT>
3

> <PUBCHEM_BOND_UDEF_STEREO_COUNT>
0

> <PUBCHEM_ISOTOPIC_ATOM_COUNT>
0

> <PUBCHEM_COMPONENT_COUNT>
1

> <PUBCHEM_CACTVS_TAUTO_COUNT>
1

> <PUBCHEM_CONFORMER_ID>
0051D4AF00000004

> <PUBCHEM_MMFF94_ENERGY>
8.1522

> <PUBCHEM_FEATURE_SELFOVERLAP>
10.149

> <PUBCHEM_SHAPE_FINGERPRINT>
12555020 224 18042686273197465491
12760667 363 18333735714925601785
12895837 130 8213848280460225280
13631057 29 18260831437284740224
13862211 1 18410296943034735597
13885169 86 10735873993136010075
13955234 65 11310688747096331373
14428016 167 18411696582535145318
14931854 50 17167859751419280002
15519825 34 16056586712338522207
15685185 35 8934997092431656359
16126227 98 9727632817297313397
1768 4 9583518741955844511
190975 80 18342455955115879720
20028762 73 18271811245571388494
20526848 3 9439405726621477296
20621476 66 10663811980298972744
21307412 95 17676770972242349171
21585483 132 18268413811051661407
23389318 12 18040724680229230124
270888 7 9799694783353804080
3004659 81 17530967999067897120
3014063 24 18341611555369722623
393628 194 9583509923813557779
406291 66 18410574006716601518
445580 204 10737282446024621718
543368 44 8718558194913702315
5718773 13 18411418431593498870
5758199 1 9943809984340623811
57634706 229 10303808821548314973
59682541 35 17274816957499836602
59682541 52 13768190684851902672
6138700 20 18260833696089138035
636775 72 9222933860519211678
96874 4 18200871907015610391

> <PUBCHEM_SHAPE_MULTIPOLES>
391.01
26.47
3.6
1.03
33.48
0.06
-0.07
-34.52
1.19
-1.99
-1.27
-1.34
-0.21
-2.2

> <PUBCHEM_SHAPE_SELFOVERLAP>
719.545

> <PUBCHEM_SHAPE_VOLUME>
244.5

> <PUBCHEM_COORDINATE_TYPE>
2
5
10

$$$$
