258412
  -OEChem-09102015593D

 63 67  0     1  0  0  0  0  0999 V2000
    1.8241   -1.4641    0.4762 O   0  0  0  0  0  0  0  0  0  0  0  0
   -4.6330   -1.2267    0.9703 O   0  0  0  0  0  0  0  0  0  0  0  0
   -4.1336    0.4326    2.6168 O   0  0  0  0  0  0  0  0  0  0  0  0
   -5.9665   -0.1661   -1.2594 O   0  0  0  0  0  0  0  0  0  0  0  0
    6.2366    0.4886    0.5624 O   0  0  0  0  0  0  0  0  0  0  0  0
    6.6089   -1.7790    0.4384 O   0  0  0  0  0  0  0  0  0  0  0  0
   -0.4352   -0.5887    0.4406 C   0  0  1  0  0  0  0  0  0  0  0  0
    1.0045   -0.4557   -0.1322 C   0  0  1  0  0  0  0  0  0  0  0  0
   -1.3882    0.5581   -0.0006 C   0  0  1  0  0  0  0  0  0  0  0  0
    1.6389    0.9473    0.0706 C   0  0  2  0  0  0  0  0  0  0  0  0
   -2.8418    0.4039    0.6073 C   0  0  2  0  0  0  0  0  0  0  0  0
   -3.4099   -1.0163    0.2466 C   0  0  1  0  0  0  0  0  0  0  0  0
   -0.7356    1.9258    0.2817 C   0  0  0  0  0  0  0  0  0  0  0  0
    0.6399    2.0516   -0.3709 C   0  0  0  0  0  0  0  0  0  0  0  0
    2.8454    0.9437   -0.9228 C   0  0  2  0  0  0  0  0  0  0  0  0
   -1.0361   -1.9721    0.1284 C   0  0  0  0  0  0  0  0  0  0  0  0
    1.1157   -0.6746   -1.6508 C   0  0  0  0  0  0  0  0  0  0  0  0
   -2.4464   -2.1357    0.6800 C   0  0  0  0  0  0  0  0  0  0  0  0
    2.3879    0.0574   -2.0970 C   0  0  0  0  0  0  0  0  0  0  0  0
   -3.8241    1.4832    0.0562 C   0  0  0  0  0  0  0  0  0  0  0  0
   -3.7421   -1.1445   -1.2648 C   0  0  0  0  0  0  0  0  0  0  0  0
    2.0710    1.2247    1.5247 C   0  0  0  0  0  0  0  0  0  0  0  0
   -2.8184    0.6071    2.1487 C   0  0  0  0  0  0  0  0  0  0  0  0
   -4.1177    1.3523   -1.4378 C   0  0  0  0  0  0  0  0  0  0  0  0
   -4.6514   -0.0307   -1.7927 C   0  0  2  0  0  0  0  0  0  0  0  0
    4.1558    0.4408   -0.3909 C   0  0  0  0  0  0  0  0  0  0  0  0
    5.1621    1.3559    0.1851 C   0  0  0  0  0  0  0  0  0  0  0  0
    4.5792   -0.8200   -0.3613 C   0  0  0  0  0  0  0  0  0  0  0  0
    5.9103   -0.7987    0.2470 C   0  0  0  0  0  0  0  0  0  0  0  0
   -0.3318   -0.5438    1.5333 H   0  0  0  0  0  0  0  0  0  0  0  0
   -1.4854    0.4901   -1.0899 H   0  0  0  0  0  0  0  0  0  0  0  0
   -0.6429    2.1015    1.3572 H   0  0  0  0  0  0  0  0  0  0  0  0
   -1.3587    2.7338   -0.1145 H   0  0  0  0  0  0  0  0  0  0  0  0
    0.5028    2.0408   -1.4597 H   0  0  0  0  0  0  0  0  0  0  0  0
    1.0555    3.0407   -0.1383 H   0  0  0  0  0  0  0  0  0  0  0  0
    3.0265    1.9568   -1.3072 H   0  0  0  0  0  0  0  0  0  0  0  0
   -0.4165   -2.7637    0.5648 H   0  0  0  0  0  0  0  0  0  0  0  0
   -1.0462   -2.1513   -0.9519 H   0  0  0  0  0  0  0  0  0  0  0  0
    0.2617   -0.2563   -2.1931 H   0  0  0  0  0  0  0  0  0  0  0  0
    1.1838   -1.7339   -1.9227 H   0  0  0  0  0  0  0  0  0  0  0  0
   -2.8478   -3.1097    0.3704 H   0  0  0  0  0  0  0  0  0  0  0  0
   -2.4062   -2.1919    1.7752 H   0  0  0  0  0  0  0  0  0  0  0  0
    3.1367   -0.6418   -2.4823 H   0  0  0  0  0  0  0  0  0  0  0  0
    2.1336    0.6979   -2.9522 H   0  0  0  0  0  0  0  0  0  0  0  0
   -3.4432    2.4909    0.2556 H   0  0  0  0  0  0  0  0  0  0  0  0
   -4.7910    1.4486    0.5716 H   0  0  0  0  0  0  0  0  0  0  0  0
   -4.2510   -2.1034   -1.4295 H   0  0  0  0  0  0  0  0  0  0  0  0
   -2.8275   -1.1537   -1.8661 H   0  0  0  0  0  0  0  0  0  0  0  0
    2.7848    0.4846    1.8993 H   0  0  0  0  0  0  0  0  0  0  0  0
    2.5287    2.2156    1.6163 H   0  0  0  0  0  0  0  0  0  0  0  0
    1.2182    1.1965    2.2104 H   0  0  0  0  0  0  0  0  0  0  0  0
   -2.4797    1.6081    2.4331 H   0  0  0  0  0  0  0  0  0  0  0  0
   -2.1798   -0.1162    2.6602 H   0  0  0  0  0  0  0  0  0  0  0  0
   -4.8520    2.1185   -1.7150 H   0  0  0  0  0  0  0  0  0  0  0  0
   -3.2115    1.5609   -2.0169 H   0  0  0  0  0  0  0  0  0  0  0  0
   -4.7381   -0.1258   -2.8810 H   0  0  0  0  0  0  0  0  0  0  0  0
    1.5859   -2.3309    0.1086 H   0  0  0  0  0  0  0  0  0  0  0  0
   -5.3099   -0.6173    0.6356 H   0  0  0  0  0  0  0  0  0  0  0  0
    5.5321    2.0774   -0.5493 H   0  0  0  0  0  0  0  0  0  0  0  0
    4.8097    1.8831    1.0743 H   0  0  0  0  0  0  0  0  0  0  0  0
   -4.5364    1.3116    2.7192 H   0  0  0  0  0  0  0  0  0  0  0  0
    4.0974   -1.7193   -0.7027 H   0  0  0  0  0  0  0  0  0  0  0  0
   -6.5171    0.5333   -1.6506 H   0  0  0  0  0  0  0  0  0  0  0  0
  1  8  1  0  0  0  0
  1 57  1  0  0  0  0
  2 12  1  0  0  0  0
  2 58  1  0  0  0  0
  3 23  1  0  0  0  0
  3 61  1  0  0  0  0
  4 25  1  0  0  0  0
  4 63  1  0  0  0  0
  5 27  1  0  0  0  0
  5 29  1  0  0  0  0
  6 29  2  0  0  0  0
  7  8  1  0  0  0  0
  7  9  1  0  0  0  0
  7 16  1  0  0  0  0
  7 30  1  0  0  0  0
  8 10  1  0  0  0  0
  8 17  1  0  0  0  0
  9 11  1  0  0  0  0
  9 13  1  0  0  0  0
  9 31  1  0  0  0  0
 10 14  1  0  0  0  0
 10 15  1  0  0  0  0
 10 22  1  0  0  0  0
 11 12  1  0  0  0  0
 11 20  1  0  0  0  0
 11 23  1  0  0  0  0
 12 18  1  0  0  0  0
 12 21  1  0  0  0  0
 13 14  1  0  0  0  0
 13 32  1  0  0  0  0
 13 33  1  0  0  0  0
 14 34  1  0  0  0  0
 14 35  1  0  0  0  0
 15 19  1  0  0  0  0
 15 26  1  0  0  0  0
 15 36  1  0  0  0  0
 16 18  1  0  0  0  0
 16 37  1  0  0  0  0
 16 38  1  0  0  0  0
 17 19  1  0  0  0  0
 17 39  1  0  0  0  0
 17 40  1  0  0  0  0
 18 41  1  0  0  0  0
 18 42  1  0  0  0  0
 19 43  1  0  0  0  0
 19 44  1  0  0  0  0
 20 24  1  0  0  0  0
 20 45  1  0  0  0  0
 20 46  1  0  0  0  0
 21 25  1  0  0  0  0
 21 47  1  0  0  0  0
 21 48  1  0  0  0  0
 22 49  1  0  0  0  0
 22 50  1  0  0  0  0
 22 51  1  0  0  0  0
 23 52  1  0  0  0  0
 23 53  1  0  0  0  0
 24 25  1  0  0  0  0
 24 54  1  0  0  0  0
 24 55  1  0  0  0  0
 25 56  1  0  0  0  0
 26 27  1  0  0  0  0
 26 28  2  0  0  0  0
 27 59  1  0  0  0  0
 27 60  1  0  0  0  0
 28 29  1  0  0  0  0
 28 62  1  0  0  0  0
M  END
> <PUBCHEM_COMPOUND_CID>
258412

> <PUBCHEM_CONFORMER_RMSD>
0.8

> <PUBCHEM_CONFORMER_DIVERSEORDER>
3
1
4
2

> <PUBCHEM_MMFF94_PARTIAL_CHARGES>
20
1 -0.68
12 0.28
15 0.14
2 -0.68
23 0.28
25 0.28
26 -0.28
27 0.42
28 -0.14
29 0.71
3 -0.68
4 -0.68
5 -0.43
57 0.4
58 0.4
6 -0.57
61 0.4
62 0.15
63 0.4
8 0.28

> <PUBCHEM_EFFECTIVE_ROTOR_COUNT>
4.6

> <PUBCHEM_PHARMACOPHORE_FEATURES>
14
1 1 acceptor
1 1 donor
1 2 acceptor
1 2 donor
1 3 acceptor
1 3 donor
1 4 acceptor
1 4 donor
1 6 acceptor
5 5 26 27 28 29 rings
5 8 10 15 17 19 rings
6 11 12 20 21 24 25 rings
6 7 8 9 10 13 14 rings
6 7 9 11 12 16 18 rings

> <PUBCHEM_HEAVY_ATOM_COUNT>
29

> <PUBCHEM_ATOM_DEF_STEREO_COUNT>
8

> <PUBCHEM_ATOM_UDEF_STEREO_COUNT>
0

> <PUBCHEM_BOND_DEF_STEREO_COUNT>
0

> <PUBCHEM_BOND_UDEF_STEREO_COUNT>
0

> <PUBCHEM_ISOTOPIC_ATOM_COUNT>
0

> <PUBCHEM_COMPONENT_COUNT>
1

> <PUBCHEM_CACTVS_TAUTO_COUNT>
1

> <PUBCHEM_CONFORMER_ID>
0003F16C00000003

> <PUBCHEM_MMFF94_ENERGY>
110.1337

> <PUBCHEM_FEATURE_SELFOVERLAP>
71.354

> <PUBCHEM_SHAPE_FINGERPRINT>
10675989 125 16965752750745820437
11315181 36 17917991693723971664
11545043 162 16805611394641247448
11796584 16 17894625976807513482
12011746 2 18410283714145086924
12166972 35 17967816101865083237
12236239 1 18272930531180602502
12403260 363 17417808495392832320
12422481 6 17774445954456755558
12633257 1 18059585671868050112
12788726 201 18128529363256579753
13140716 1 18269006447195767640
13224815 77 18131075947849301957
13583140 156 18341608278367756342
13631057 29 14404887125073457397
13675066 3 17676214601862138296
13782708 43 17059787615986539350
13914758 101 18187355489862192109
14068700 675 16773219812779426645
14251758 9 17530683191306996894
14787075 74 14189567568393773934
14856354 85 14345800439369337794
15131766 46 17392518719186264269
15183329 4 15864066551383752102
15238133 3 14923941202632670799
15788980 27 17967257502771548052
1601671 61 13623524654509102724
17349148 13 18059861683451096344
17844677 252 15647345168586109316
17980427 23 17775294884116951953
18608769 82 18261673757934058983
18927931 339 18337684035183937566
19377110 9 16630529526757750222
19489759 90 18413103957117297356
200 152 17418091040248903333
20567600 75 18114178614799641318
21033648 29 17822564009960316281
21267235 1 18334304187890435138
21279426 13 18334572396214192046
21682296 61 17702673129815114358
21709351 56 16660368094881974558
22079108 93 14261343679096957478
22393880 68 17822561811189735699
23402539 116 18341892974364379772
23559900 14 18338506555691611344
3004659 81 18040431084559449390
32027 91 15624001286945761644
34797466 226 14979678849022873768
3633792 109 18337099061071089991
4015057 19 18340762745004344048
4325135 7 13614238217538854982
5104073 3 18271533078198907450
5283173 99 18335129852503950540
59755656 215 18188206503715676958
59755656 520 14490187216113726201
6913067 236 17060333016223573140
7226269 152 18408324371898424592
7495541 125 17774995813371054824
9981440 41 17822008667200675795

> <PUBCHEM_SHAPE_MULTIPOLES>
561.59
13.14
1.93
1.72
10.66
0.11
-0.1
1.95
0.19
-0.11
-0.23
-1.83
-0.18
-0.05

> <PUBCHEM_SHAPE_SELFOVERLAP>
1221.982

> <PUBCHEM_SHAPE_VOLUME>
303.6

> <PUBCHEM_COORDINATE_TYPE>
2
5
10

$$$$
