545889
  -OEChem-09102016043D

 51 50  0     0  0  0  0  0  0999 V2000
   -7.0590   -1.2681    1.2909 S   0  0  0  0  0  0  0  0  0  0  0  0
   -1.6248   -0.2315   -0.1154 C   0  0  0  0  0  0  0  0  0  0  0  0
   -2.8959    0.6005    0.0819 C   0  0  0  0  0  0  0  0  0  0  0  0
   -0.3011    0.5308   -0.0010 C   0  0  0  0  0  0  0  0  0  0  0  0
   -4.1855   -0.2203   -0.0194 C   0  0  0  0  0  0  0  0  0  0  0  0
    0.9323   -0.3617   -0.1512 C   0  0  0  0  0  0  0  0  0  0  0  0
   -5.4214    0.6772    0.1484 C   0  0  0  0  0  0  0  0  0  0  0  0
    2.2215    0.4353    0.0609 C   0  0  0  0  0  0  0  0  0  0  0  0
   -6.7963   -0.0129   -0.0286 C   0  0  0  0  0  0  0  0  0  0  0  0
    3.4580   -0.4481   -0.1210 C   0  0  0  0  0  0  0  0  0  0  0  0
    4.7458    0.3589    0.0588 C   0  0  0  0  0  0  0  0  0  0  0  0
    6.0191   -0.4694   -0.1428 C   0  0  0  0  0  0  0  0  0  0  0  0
    7.3045    0.3220    0.1139 C   0  0  0  0  0  0  0  0  0  0  0  0
   -7.9074    1.0399    0.1115 C   0  0  0  0  0  0  0  0  0  0  0  0
   -6.9225   -0.7084   -1.3895 C   0  0  0  0  0  0  0  0  0  0  0  0
    8.5758   -0.5067   -0.0897 C   0  0  0  0  0  0  0  0  0  0  0  0
    9.8571    0.2625    0.1924 C   0  0  0  0  0  0  0  0  0  0  0  0
   -1.6244   -1.0437    0.6229 H   0  0  0  0  0  0  0  0  0  0  0  0
   -1.6679   -0.7118   -1.1012 H   0  0  0  0  0  0  0  0  0  0  0  0
   -2.9124    1.4009   -0.6682 H   0  0  0  0  0  0  0  0  0  0  0  0
   -2.8539    1.0877    1.0639 H   0  0  0  0  0  0  0  0  0  0  0  0
   -0.2755    1.3204   -0.7621 H   0  0  0  0  0  0  0  0  0  0  0  0
   -0.2680    1.0314    0.9747 H   0  0  0  0  0  0  0  0  0  0  0  0
   -4.1722   -1.0050    0.7444 H   0  0  0  0  0  0  0  0  0  0  0  0
   -4.2049   -0.7137   -0.9968 H   0  0  0  0  0  0  0  0  0  0  0  0
    0.9341   -0.8158   -1.1493 H   0  0  0  0  0  0  0  0  0  0  0  0
    0.8849   -1.1803    0.5771 H   0  0  0  0  0  0  0  0  0  0  0  0
   -5.3498    1.4904   -0.5874 H   0  0  0  0  0  0  0  0  0  0  0  0
   -5.3757    1.1630    1.1330 H   0  0  0  0  0  0  0  0  0  0  0  0
    2.2250    0.8705    1.0676 H   0  0  0  0  0  0  0  0  0  0  0  0
    2.2577    1.2681   -0.6520 H   0  0  0  0  0  0  0  0  0  0  0  0
    3.4354   -1.2707    0.6037 H   0  0  0  0  0  0  0  0  0  0  0  0
    3.4466   -0.8971   -1.1215 H   0  0  0  0  0  0  0  0  0  0  0  0
    4.7522    1.1978   -0.6483 H   0  0  0  0  0  0  0  0  0  0  0  0
    4.7576    0.7942    1.0658 H   0  0  0  0  0  0  0  0  0  0  0  0
    5.9932   -1.3361    0.5292 H   0  0  0  0  0  0  0  0  0  0  0  0
    6.0335   -0.8628   -1.1666 H   0  0  0  0  0  0  0  0  0  0  0  0
    7.2889    0.7097    1.1400 H   0  0  0  0  0  0  0  0  0  0  0  0
    7.3319    1.1923   -0.5532 H   0  0  0  0  0  0  0  0  0  0  0  0
   -7.8107    1.8095   -0.6636 H   0  0  0  0  0  0  0  0  0  0  0  0
   -7.8647    1.5494    1.0815 H   0  0  0  0  0  0  0  0  0  0  0  0
   -8.9057    0.5992    0.0040 H   0  0  0  0  0  0  0  0  0  0  0  0
   -7.9359   -1.0950   -1.5521 H   0  0  0  0  0  0  0  0  0  0  0  0
   -6.7123   -0.0050   -2.2038 H   0  0  0  0  0  0  0  0  0  0  0  0
   -6.2313   -1.5515   -1.4953 H   0  0  0  0  0  0  0  0  0  0  0  0
    8.6050   -0.8779   -1.1211 H   0  0  0  0  0  0  0  0  0  0  0  0
    8.5429   -1.3870    0.5634 H   0  0  0  0  0  0  0  0  0  0  0  0
   -8.2830   -1.6553    0.9021 H   0  0  0  0  0  0  0  0  0  0  0  0
   10.7293   -0.3782    0.0301 H   0  0  0  0  0  0  0  0  0  0  0  0
    9.8803    0.6151    1.2283 H   0  0  0  0  0  0  0  0  0  0  0  0
    9.9436    1.1310   -0.4682 H   0  0  0  0  0  0  0  0  0  0  0  0
  1  9  1  0  0  0  0
  1 48  1  0  0  0  0
  2  3  1  0  0  0  0
  2  4  1  0  0  0  0
  2 18  1  0  0  0  0
  2 19  1  0  0  0  0
  3  5  1  0  0  0  0
  3 20  1  0  0  0  0
  3 21  1  0  0  0  0
  4  6  1  0  0  0  0
  4 22  1  0  0  0  0
  4 23  1  0  0  0  0
  5  7  1  0  0  0  0
  5 24  1  0  0  0  0
  5 25  1  0  0  0  0
  6  8  1  0  0  0  0
  6 26  1  0  0  0  0
  6 27  1  0  0  0  0
  7  9  1  0  0  0  0
  7 28  1  0  0  0  0
  7 29  1  0  0  0  0
  8 10  1  0  0  0  0
  8 30  1  0  0  0  0
  8 31  1  0  0  0  0
  9 14  1  0  0  0  0
  9 15  1  0  0  0  0
 10 11  1  0  0  0  0
 10 32  1  0  0  0  0
 10 33  1  0  0  0  0
 11 12  1  0  0  0  0
 11 34  1  0  0  0  0
 11 35  1  0  0  0  0
 12 13  1  0  0  0  0
 12 36  1  0  0  0  0
 12 37  1  0  0  0  0
 13 16  1  0  0  0  0
 13 38  1  0  0  0  0
 13 39  1  0  0  0  0
 14 40  1  0  0  0  0
 14 41  1  0  0  0  0
 14 42  1  0  0  0  0
 15 43  1  0  0  0  0
 15 44  1  0  0  0  0
 15 45  1  0  0  0  0
 16 17  1  0  0  0  0
 16 46  1  0  0  0  0
 16 47  1  0  0  0  0
 17 49  1  0  0  0  0
 17 50  1  0  0  0  0
 17 51  1  0  0  0  0
M  END
> <PUBCHEM_COMPOUND_CID>
545889

> <PUBCHEM_CONFORMER_RMSD>
1.2

> <PUBCHEM_CONFORMER_DIVERSEORDER>
1
686
65
644
131
64
121
303
355
656
5
700
7
179
158
526
701
702
582
22
21
497
255
83
79
46
15
316
225
692
197
675
288
458
32
28
92
110
540
13
489
257
218
196
100
262
311
528
609
274
571
85
405
31
54
336
248
658
63
88
68
107
397
23
661
133
39
76
60
240
506
514
631
43
335
24
77
614
18
306
430
95
449
601
62
123
476
494
361
20
293
4
214
396
26
227
654
282
178
731
6
170
98
581
620
643
376
35
99
551
315
565
413
61
628
19
48
3
102
130
137
665
265
220
611
422
2
420
93
294
524
737
598
103
648
386
639

> <PUBCHEM_MMFF94_PARTIAL_CHARGES>
3
1 -0.41
48 0.18
9 0.23

> <PUBCHEM_EFFECTIVE_ROTOR_COUNT>
12

> <PUBCHEM_PHARMACOPHORE_FEATURES>
2
1 17 hydrophobe
3 9 14 15 hydrophobe

> <PUBCHEM_HEAVY_ATOM_COUNT>
17

> <PUBCHEM_ATOM_DEF_STEREO_COUNT>
0

> <PUBCHEM_ATOM_UDEF_STEREO_COUNT>
0

> <PUBCHEM_BOND_DEF_STEREO_COUNT>
0

> <PUBCHEM_BOND_UDEF_STEREO_COUNT>
0

> <PUBCHEM_ISOTOPIC_ATOM_COUNT>
0

> <PUBCHEM_COMPONENT_COUNT>
1

> <PUBCHEM_CACTVS_TAUTO_COUNT>
1

> <PUBCHEM_CONFORMER_ID>
0008546100000001

> <PUBCHEM_MMFF94_ENERGY>
10.6386

> <PUBCHEM_FEATURE_SELFOVERLAP>
10.149

> <PUBCHEM_SHAPE_FINGERPRINT>
11315181 36 18186242832030690865
11638347 137 17821726110251032754
12091667 2 18272370872168966965
13885169 127 18113337492261555221
14123256 10 18113900450984096800
14251764 18 18413386527717038626
14251764 46 18410573985151451136
16120349 18 18340764936555938096
18006028 8 18408040710577813996
21150785 3 18202282502902510930
22224240 67 17704351078779121446
232437 2 18201719556764359982
23521765 1 18341894087098272476
246663 6 18413673508984020150
33684 2 18410573980861765092
59682541 35 18412543232721852536
67123 10 18410855473018338436
8209 1 18343301462045135772

> <PUBCHEM_SHAPE_MULTIPOLES>
353.7
34.04
0.97
0.86
38.83
0.12
0.1
1.68
-1.32
-1.44
-0.15
-1.44
0.17
0.43

> <PUBCHEM_SHAPE_SELFOVERLAP>
628.357

> <PUBCHEM_SHAPE_VOLUME>
230.5

> <PUBCHEM_COORDINATE_TYPE>
2
5
10

$$$$
