101281096
  -OEChem-09102015393D

 40 42  0     1  0  0  0  0  0999 V2000
   -2.6450   -0.2600   -1.3690 O   0  0  0  0  0  0  0  0  0  0  0  0
    1.0697    1.2650   -0.0376 C   0  0  2  0  0  0  0  0  0  0  0  0
   -0.1327   -0.4935    0.0798 C   0  0  1  0  0  0  0  0  0  0  0  0
    0.5379    0.2485   -1.1458 C   0  0  2  0  0  0  0  0  0  0  0  0
    1.1778   -0.0504    0.8465 C   0  0  1  0  0  0  0  0  0  0  0  0
   -1.4128    0.1299    0.6540 C   0  0  1  0  0  0  0  0  0  0  0  0
   -0.0072    2.2242    0.5318 C   0  0  0  0  0  0  0  0  0  0  0  0
   -1.4070    1.6353    0.3839 C   0  0  0  0  0  0  0  0  0  0  0  0
    1.5982   -0.6282   -1.8375 C   0  0  0  0  0  0  0  0  0  0  0  0
    2.3414   -0.9434    0.5090 C   0  0  0  0  0  0  0  0  0  0  0  0
    2.3466    2.0524   -0.3215 C   0  0  0  0  0  0  0  0  0  0  0  0
   -2.6431   -0.5270    0.0345 C   0  0  0  0  0  0  0  0  0  0  0  0
    2.5154   -1.2187   -0.7965 C   0  0  0  0  0  0  0  0  0  0  0  0
    3.2004   -1.4621    1.6118 C   0  0  0  0  0  0  0  0  0  0  0  0
   -3.9236    0.0696    0.6165 C   0  0  0  0  0  0  0  0  0  0  0  0
   -2.6161   -2.0416    0.2401 C   0  0  0  0  0  0  0  0  0  0  0  0
   -0.1807   -1.5821   -0.0117 H   0  0  0  0  0  0  0  0  0  0  0  0
   -0.1451    0.6792   -1.8851 H   0  0  0  0  0  0  0  0  0  0  0  0
    1.0651    0.0953    1.9264 H   0  0  0  0  0  0  0  0  0  0  0  0
   -1.4236   -0.0384    1.7396 H   0  0  0  0  0  0  0  0  0  0  0  0
    0.0182    3.1886    0.0099 H   0  0  0  0  0  0  0  0  0  0  0  0
    0.2061    2.4298    1.5882 H   0  0  0  0  0  0  0  0  0  0  0  0
   -2.0935    2.1589    1.0593 H   0  0  0  0  0  0  0  0  0  0  0  0
   -1.7521    1.8602   -0.6327 H   0  0  0  0  0  0  0  0  0  0  0  0
    2.1795   -0.0299   -2.5469 H   0  0  0  0  0  0  0  0  0  0  0  0
    1.1111   -1.4347   -2.3962 H   0  0  0  0  0  0  0  0  0  0  0  0
    3.1642    1.4328   -0.6975 H   0  0  0  0  0  0  0  0  0  0  0  0
    2.7058    2.5457    0.5884 H   0  0  0  0  0  0  0  0  0  0  0  0
    2.1614    2.8266   -1.0742 H   0  0  0  0  0  0  0  0  0  0  0  0
    3.3259   -1.8588   -1.1294 H   0  0  0  0  0  0  0  0  0  0  0  0
    3.6570   -0.6314    2.1593 H   0  0  0  0  0  0  0  0  0  0  0  0
    4.0062   -2.1004    1.2353 H   0  0  0  0  0  0  0  0  0  0  0  0
    2.6027   -2.0527    2.3133 H   0  0  0  0  0  0  0  0  0  0  0  0
   -2.3776   -2.3112    1.2741 H   0  0  0  0  0  0  0  0  0  0  0  0
   -1.9271   -2.5493   -0.4421 H   0  0  0  0  0  0  0  0  0  0  0  0
   -3.5977   -2.4736    0.0078 H   0  0  0  0  0  0  0  0  0  0  0  0
   -4.0486    1.1229    0.3441 H   0  0  0  0  0  0  0  0  0  0  0  0
   -4.8069   -0.4403    0.2133 H   0  0  0  0  0  0  0  0  0  0  0  0
   -3.9515   -0.0199    1.7075 H   0  0  0  0  0  0  0  0  0  0  0  0
   -3.4219   -0.6980   -1.7569 H   0  0  0  0  0  0  0  0  0  0  0  0
  1 12  1  0  0  0  0
  1 40  1  0  0  0  0
  2  4  1  0  0  0  0
  2  5  1  0  0  0  0
  2  7  1  0  0  0  0
  2 11  1  0  0  0  0
  3  4  1  0  0  0  0
  3  5  1  0  0  0  0
  3  6  1  0  0  0  0
  3 17  1  0  0  0  0
  4  9  1  0  0  0  0
  4 18  1  0  0  0  0
  5 10  1  0  0  0  0
  5 19  1  0  0  0  0
  6  8  1  0  0  0  0
  6 12  1  0  0  0  0
  6 20  1  0  0  0  0
  7  8  1  0  0  0  0
  7 21  1  0  0  0  0
  7 22  1  0  0  0  0
  8 23  1  0  0  0  0
  8 24  1  0  0  0  0
  9 13  1  0  0  0  0
  9 25  1  0  0  0  0
  9 26  1  0  0  0  0
 10 13  2  0  0  0  0
 10 14  1  0  0  0  0
 11 27  1  0  0  0  0
 11 28  1  0  0  0  0
 11 29  1  0  0  0  0
 12 15  1  0  0  0  0
 12 16  1  0  0  0  0
 13 30  1  0  0  0  0
 14 31  1  0  0  0  0
 14 32  1  0  0  0  0
 14 33  1  0  0  0  0
 15 37  1  0  0  0  0
 15 38  1  0  0  0  0
 15 39  1  0  0  0  0
 16 34  1  0  0  0  0
 16 35  1  0  0  0  0
 16 36  1  0  0  0  0
M  END
> <PUBCHEM_COMPOUND_CID>
101281096

> <PUBCHEM_CONFORMER_RMSD>
0.6

> <PUBCHEM_CONFORMER_DIVERSEORDER>
1
4
2
5
3

> <PUBCHEM_MMFF94_PARTIAL_CHARGES>
9
1 -0.68
10 -0.25
12 0.28
13 -0.29
14 0.14
30 0.15
40 0.4
5 0.12
9 0.14

> <PUBCHEM_EFFECTIVE_ROTOR_COUNT>
1.8

> <PUBCHEM_PHARMACOPHORE_FEATURES>
5
1 1 acceptor
1 1 donor
3 12 15 16 hydrophobe
7 2 3 4 5 6 7 8 rings
7 2 3 4 5 9 10 13 rings

> <PUBCHEM_HEAVY_ATOM_COUNT>
16

> <PUBCHEM_ATOM_DEF_STEREO_COUNT>
4

> <PUBCHEM_ATOM_UDEF_STEREO_COUNT>
1

> <PUBCHEM_BOND_DEF_STEREO_COUNT>
0

> <PUBCHEM_BOND_UDEF_STEREO_COUNT>
0

> <PUBCHEM_ISOTOPIC_ATOM_COUNT>
0

> <PUBCHEM_COMPONENT_COUNT>
1

> <PUBCHEM_CACTVS_TAUTO_COUNT>
1

> <PUBCHEM_CONFORMER_ID>
06096D4800000001

> <PUBCHEM_MMFF94_ENERGY>
51.5812

> <PUBCHEM_FEATURE_SELFOVERLAP>
25.89

> <PUBCHEM_SHAPE_FINGERPRINT>
10130415 120 18411421700432688011
11471102 22 16199585767073378382
11578080 2 17531792568490859924
11680611 10 18264498286471306232
11769659 78 18113328700321212178
12326174 3 18339648961357927132
12423570 1 17846490409730626212
12553582 1 18338521845843756771
12932764 1 18040157340007082327
13140716 1 18411139164583543091
13296908 3 18338242660458881971
13705890 14 16298394547618437882
14115302 16 18040442066332136207
14817 1 14351356284878559372
15375462 189 18186805772434244426
15375462 478 18270384036897568576
16945 1 18338520711871722042
17990270 104 18128827506684243951
18186145 218 18186805790183403151
20645477 70 18340488971468159623
21452121 71 18114181917587339458
21501502 16 18339923843744415723
21524375 3 17620193569251264104
22112679 90 18044671793101199296
232386 152 18335984172996144330
2334 1 18268433606190755915
23402539 116 18057021550764861229
23419403 2 17693605521054291216
23557571 272 17987243235757137472
23559900 14 18055075359570941934
2748010 2 18341055211017999581
296302 2 17704065196585514867
5902787 121 18409447011598146091
7364860 26 18201163251389167544
74978 22 18409453600441643499
81228 2 17983867687324900649
81539 233 18191588764385459676

> <PUBCHEM_SHAPE_MULTIPOLES>
323.4
5.14
2.08
1.35
2.79
0.7
0.28
-2.01
-0.78
-0.52
-0.32
-0.76
-0.38
-0.45

> <PUBCHEM_SHAPE_SELFOVERLAP>
687.631

> <PUBCHEM_SHAPE_VOLUME>
182.4

> <PUBCHEM_COORDINATE_TYPE>
2
5
10

$$$$
