101280173
  -OEChem-09102013273D

 81 84  0     1  0  0  0  0  0999 V2000
    6.9880    2.4281    0.6128 O   0  0  0  0  0  0  0  0  0  0  0  0
   -7.0030   -0.9803   -0.8085 O   0  0  0  0  0  0  0  0  0  0  0  0
   -6.0174   -0.1027    1.8003 O   0  0  0  0  0  0  0  0  0  0  0  0
   -0.6975   -0.2543   -0.3964 C   0  0  2  0  0  0  0  0  0  0  0  0
    0.2178   -1.4816   -0.0749 C   0  0  1  0  0  0  0  0  0  0  0  0
    2.1465    0.2086   -0.5180 C   0  0  2  0  0  0  0  0  0  0  0  0
   -2.0832   -0.9426   -0.5342 C   0  0  1  0  0  0  0  0  0  0  0  0
    3.7218    0.1751   -0.7032 C   0  0  2  0  0  0  0  0  0  0  0  0
    1.6301   -1.0165    0.2473 C   0  0  0  0  0  0  0  0  0  0  0  0
   -0.2024    0.4554   -1.6699 C   0  0  0  0  0  0  0  0  0  0  0  0
   -0.6081   -2.1803    1.0292 C   0  0  0  0  0  0  0  0  0  0  0  0
    1.3380    0.5195   -1.8047 C   0  0  0  0  0  0  0  0  0  0  0  0
    4.3214    0.0097    0.7459 C   0  0  2  0  0  0  0  0  0  0  0  0
   -2.0814   -1.9897    0.6053 C   0  0  0  0  0  0  0  0  0  0  0  0
   -3.3115   -0.0403   -0.5060 C   0  0  2  0  0  0  0  0  0  0  0  0
   -0.7803    0.7938    0.7601 C   0  0  0  0  0  0  0  0  0  0  0  0
    0.3628   -2.5183   -1.2339 C   0  0  0  0  0  0  0  0  0  0  0  0
    5.8518    0.3026    0.9355 C   0  0  0  0  0  0  0  0  0  0  0  0
    4.2031    1.5260   -1.2896 C   0  0  0  0  0  0  0  0  0  0  0  0
    3.8542   -1.3141    1.3936 C   0  0  0  0  0  0  0  0  0  0  0  0
    2.4215   -1.6681    1.1185 C   0  0  0  0  0  0  0  0  0  0  0  0
    4.1159   -0.9660   -1.6709 C   0  0  0  0  0  0  0  0  0  0  0  0
    5.7120    1.6996   -1.2559 C   0  0  0  0  0  0  0  0  0  0  0  0
    6.2272    1.5727    0.1563 C   0  0  0  0  0  0  0  0  0  0  0  0
   -4.5955   -0.8946   -0.6168 C   0  0  0  0  0  0  0  0  0  0  0  0
   -3.2136    1.0063   -1.6203 C   0  0  0  0  0  0  0  0  0  0  0  0
    6.8074   -0.8164    0.4937 C   0  0  0  0  0  0  0  0  0  0  0  0
    6.1324    0.5625    2.4374 C   0  0  0  0  0  0  0  0  0  0  0  0
   -5.9042   -0.0909   -0.6230 C   0  0  2  0  0  0  0  0  0  0  0  0
   -6.1023    0.7512    0.6566 C   0  0  1  0  0  0  0  0  0  0  0  0
   -7.3891    1.5485    0.7461 C   0  0  0  0  0  0  0  0  0  0  0  0
   -8.6995    0.8136    0.6943 C   0  0  0  0  0  0  0  0  0  0  0  0
   -7.3627    2.8836    0.8936 C   0  0  0  0  0  0  0  0  0  0  0  0
    1.9559    1.0704    0.1353 H   0  0  0  0  0  0  0  0  0  0  0  0
   -2.1111   -1.4883   -1.4876 H   0  0  0  0  0  0  0  0  0  0  0  0
   -0.5514    1.4907   -1.7115 H   0  0  0  0  0  0  0  0  0  0  0  0
   -0.5988   -0.0331   -2.5686 H   0  0  0  0  0  0  0  0  0  0  0  0
   -0.4416   -1.7149    2.0083 H   0  0  0  0  0  0  0  0  0  0  0  0
   -0.3669   -3.2437    1.1401 H   0  0  0  0  0  0  0  0  0  0  0  0
    1.5986    1.5202   -2.1704 H   0  0  0  0  0  0  0  0  0  0  0  0
    1.6322   -0.1613   -2.6096 H   0  0  0  0  0  0  0  0  0  0  0  0
    3.8277    0.8043    1.3320 H   0  0  0  0  0  0  0  0  0  0  0  0
   -2.5053   -2.9370    0.2529 H   0  0  0  0  0  0  0  0  0  0  0  0
   -2.6673   -1.6691    1.4742 H   0  0  0  0  0  0  0  0  0  0  0  0
   -3.3520    0.4856    0.4532 H   0  0  0  0  0  0  0  0  0  0  0  0
   -1.2972    0.4018    1.6423 H   0  0  0  0  0  0  0  0  0  0  0  0
   -1.3166    1.6981    0.4573 H   0  0  0  0  0  0  0  0  0  0  0  0
    0.1945    1.1280    1.1150 H   0  0  0  0  0  0  0  0  0  0  0  0
   -0.5866   -2.9852   -1.5130 H   0  0  0  0  0  0  0  0  0  0  0  0
    1.0246   -3.3406   -0.9318 H   0  0  0  0  0  0  0  0  0  0  0  0
    0.7878   -2.0930   -2.1454 H   0  0  0  0  0  0  0  0  0  0  0  0
    3.7467    2.3498   -0.7243 H   0  0  0  0  0  0  0  0  0  0  0  0
    3.8679    1.6357   -2.3277 H   0  0  0  0  0  0  0  0  0  0  0  0
    3.9800   -1.2580    2.4804 H   0  0  0  0  0  0  0  0  0  0  0  0
    4.4659   -2.1522    1.0439 H   0  0  0  0  0  0  0  0  0  0  0  0
    2.0487   -2.5504    1.6318 H   0  0  0  0  0  0  0  0  0  0  0  0
    3.7915   -1.9501   -1.3216 H   0  0  0  0  0  0  0  0  0  0  0  0
    5.1901   -1.0233   -1.8395 H   0  0  0  0  0  0  0  0  0  0  0  0
    3.6751   -0.8156   -2.6616 H   0  0  0  0  0  0  0  0  0  0  0  0
    5.9668    2.6981   -1.6297 H   0  0  0  0  0  0  0  0  0  0  0  0
    6.2292    0.9763   -1.8921 H   0  0  0  0  0  0  0  0  0  0  0  0
   -4.6466   -1.6346    0.1906 H   0  0  0  0  0  0  0  0  0  0  0  0
   -4.5537   -1.4892   -1.5400 H   0  0  0  0  0  0  0  0  0  0  0  0
   -2.4966    1.7916   -1.3867 H   0  0  0  0  0  0  0  0  0  0  0  0
   -2.9666    0.5538   -2.5857 H   0  0  0  0  0  0  0  0  0  0  0  0
   -4.1514    1.5512   -1.7530 H   0  0  0  0  0  0  0  0  0  0  0  0
    7.8493   -0.5273    0.6822 H   0  0  0  0  0  0  0  0  0  0  0  0
    7.1792    0.8417    2.6083 H   0  0  0  0  0  0  0  0  0  0  0  0
    6.7519   -1.0322   -0.5727 H   0  0  0  0  0  0  0  0  0  0  0  0
    5.5160    1.3838    2.8207 H   0  0  0  0  0  0  0  0  0  0  0  0
    6.6328   -1.7469    1.0420 H   0  0  0  0  0  0  0  0  0  0  0  0
    5.9365   -0.3248    3.0477 H   0  0  0  0  0  0  0  0  0  0  0  0
   -5.9380    0.5785   -1.4877 H   0  0  0  0  0  0  0  0  0  0  0  0
   -5.2607    1.4485    0.7371 H   0  0  0  0  0  0  0  0  0  0  0  0
   -6.8600   -1.4561   -1.6444 H   0  0  0  0  0  0  0  0  0  0  0  0
   -6.0817    0.4558    2.5940 H   0  0  0  0  0  0  0  0  0  0  0  0
   -8.9349    0.5067   -0.3287 H   0  0  0  0  0  0  0  0  0  0  0  0
   -8.6779   -0.0712    1.3383 H   0  0  0  0  0  0  0  0  0  0  0  0
   -9.5282    1.4406    1.0423 H   0  0  0  0  0  0  0  0  0  0  0  0
   -6.4271    3.4308    0.9425 H   0  0  0  0  0  0  0  0  0  0  0  0
   -8.2777    3.4623    0.9664 H   0  0  0  0  0  0  0  0  0  0  0  0
  1 24  2  0  0  0  0
  2 29  1  0  0  0  0
  2 75  1  0  0  0  0
  3 30  1  0  0  0  0
  3 76  1  0  0  0  0
  4  5  1  0  0  0  0
  4  7  1  0  0  0  0
  4 10  1  0  0  0  0
  4 16  1  0  0  0  0
  5  9  1  0  0  0  0
  5 11  1  0  0  0  0
  5 17  1  0  0  0  0
  6  8  1  0  0  0  0
  6  9  1  0  0  0  0
  6 12  1  0  0  0  0
  6 34  1  0  0  0  0
  7 14  1  0  0  0  0
  7 15  1  0  0  0  0
  7 35  1  0  0  0  0
  8 13  1  0  0  0  0
  8 19  1  0  0  0  0
  8 22  1  0  0  0  0
  9 21  2  0  0  0  0
 10 12  1  0  0  0  0
 10 36  1  0  0  0  0
 10 37  1  0  0  0  0
 11 14  1  0  0  0  0
 11 38  1  0  0  0  0
 11 39  1  0  0  0  0
 12 40  1  0  0  0  0
 12 41  1  0  0  0  0
 13 18  1  0  0  0  0
 13 20  1  0  0  0  0
 13 42  1  0  0  0  0
 14 43  1  0  0  0  0
 14 44  1  0  0  0  0
 15 25  1  0  0  0  0
 15 26  1  0  0  0  0
 15 45  1  0  0  0  0
 16 46  1  0  0  0  0
 16 47  1  0  0  0  0
 16 48  1  0  0  0  0
 17 49  1  0  0  0  0
 17 50  1  0  0  0  0
 17 51  1  0  0  0  0
 18 24  1  0  0  0  0
 18 27  1  0  0  0  0
 18 28  1  0  0  0  0
 19 23  1  0  0  0  0
 19 52  1  0  0  0  0
 19 53  1  0  0  0  0
 20 21  1  0  0  0  0
 20 54  1  0  0  0  0
 20 55  1  0  0  0  0
 21 56  1  0  0  0  0
 22 57  1  0  0  0  0
 22 58  1  0  0  0  0
 22 59  1  0  0  0  0
 23 24  1  0  0  0  0
 23 60  1  0  0  0  0
 23 61  1  0  0  0  0
 25 29  1  0  0  0  0
 25 62  1  0  0  0  0
 25 63  1  0  0  0  0
 26 64  1  0  0  0  0
 26 65  1  0  0  0  0
 26 66  1  0  0  0  0
 27 67  1  0  0  0  0
 27 69  1  0  0  0  0
 27 71  1  0  0  0  0
 28 68  1  0  0  0  0
 28 70  1  0  0  0  0
 28 72  1  0  0  0  0
 29 30  1  0  0  0  0
 29 73  1  0  0  0  0
 30 31  1  0  0  0  0
 30 74  1  0  0  0  0
 31 32  1  0  0  0  0
 31 33  2  0  0  0  0
 32 77  1  0  0  0  0
 32 78  1  0  0  0  0
 32 79  1  0  0  0  0
 33 80  1  0  0  0  0
 33 81  1  0  0  0  0
M  END
> <PUBCHEM_COMPOUND_CID>
101280173

> <PUBCHEM_CONFORMER_RMSD>
1

> <PUBCHEM_CONFORMER_DIVERSEORDER>
1
16
14
13
18
15
12
7
8
21
20
6
10
19
5
9
17
11
4
2
3

> <PUBCHEM_MMFF94_PARTIAL_CHARGES>
21
1 -0.57
18 0.06
2 -0.68
20 0.14
21 -0.29
23 0.06
24 0.45
29 0.28
3 -0.68
30 0.42
31 -0.28
32 0.14
33 -0.3
5 0.14
56 0.15
6 0.14
75 0.4
76 0.4
80 0.15
81 0.15
9 -0.28

> <PUBCHEM_EFFECTIVE_ROTOR_COUNT>
6.8

> <PUBCHEM_PHARMACOPHORE_FEATURES>
11
1 1 acceptor
1 2 acceptor
1 2 donor
1 26 hydrophobe
1 3 acceptor
1 3 donor
3 18 27 28 hydrophobe
5 4 5 7 11 14 rings
6 4 5 6 9 10 12 rings
6 6 8 9 13 20 21 rings
6 8 13 18 19 23 24 rings

> <PUBCHEM_HEAVY_ATOM_COUNT>
33

> <PUBCHEM_ATOM_DEF_STEREO_COUNT>
7

> <PUBCHEM_ATOM_UDEF_STEREO_COUNT>
2

> <PUBCHEM_BOND_DEF_STEREO_COUNT>
0

> <PUBCHEM_BOND_UDEF_STEREO_COUNT>
0

> <PUBCHEM_ISOTOPIC_ATOM_COUNT>
0

> <PUBCHEM_COMPONENT_COUNT>
1

> <PUBCHEM_CACTVS_TAUTO_COUNT>
2

> <PUBCHEM_CONFORMER_ID>
060969AD00000001

> <PUBCHEM_MMFF94_ENERGY>
132.3803

> <PUBCHEM_FEATURE_SELFOVERLAP>
55.915

> <PUBCHEM_SHAPE_FINGERPRINT>
10 15 17675926512266474709
10554248 39 16486412062660678989
10693767 8 10952056628210972988
10906281 52 18335430075155111839
11456790 92 18335416863920255512
11963148 33 8574439694475011209
11991303 11 14907887306771371509
12035758 1 16877946040292946307
12236239 1 18336540607858860454
12539765 74 18202569466362597622
13533116 47 18271241626119298946
13617811 41 12967126108273991442
13668630 136 8142083174080146809
13782708 43 12612749129352677041
14251764 18 18333731351423172487
14294032 229 18342167882478253751
14849402 71 18336547213687743385
14856354 85 17988922323452364807
15183329 4 17967530190171370367
15461852 350 17417800761338244621
15475509 35 14635135812518512040
15840311 113 18334298651687951797
16994733 274 17988922262890026569
17980427 23 18262235633238393327
19377110 9 18334011666569068841
20105231 36 17095525059472721018
2026 5 11458425748260024473
20554085 129 17988921171641603698
21033648 29 18130774707643981720
21130935 74 18335700563558487634
21150785 3 15123504801400769637
21267235 1 17312820442799857022
21424621 283 18272371958220842539
21781051 124 12901551217302266992
21781055 127 18411146801673490528
21792934 111 17240758450768075037
221357 26 12607409892646577818
22149856 69 17676776357867678413
22224240 67 18187365424596457235
22956985 138 11676246633415137744
23576562 1 14188990316769177409
24771293 8 18335982051245533269
25269216 80 16845279601846142125
3178227 256 17095246921210448701
3383291 50 14996286916289212297
392239 28 17022906748673818003
397830 11 15285931324301732477
4058900 60 15698012824804990079
4073 2 18413111663217892103
4093350 32 18131354059645632814
4340502 62 16877661266565295818
504579 68 12175619577680614521
5104073 3 17386560246430799829
5385378 56 18334856065371084467
563151 248 15574718023367189857
5758199 1 18408604764770028627
5937810 71 16415490324875663857
59682541 52 13973973099426426740

> <PUBCHEM_SHAPE_MULTIPOLES>
661.52
22.13
2.26
1.75
25.58
0.14
-0.07
13.58
-8.2
0.09
-0.22
-1.18
0.15
-1.35

> <PUBCHEM_SHAPE_SELFOVERLAP>
1385.622

> <PUBCHEM_SHAPE_VOLUME>
371.4

> <PUBCHEM_COORDINATE_TYPE>
2
5
10

$$$$
