536442
  -OEChem-09102015553D

 38 38  0     1  0  0  0  0  0999 V2000
    0.5944   -0.5255   -2.2124 O   0  0  0  0  0  0  0  0  0  0  0  0
   -3.7762   -0.8850    1.1079 O   0  0  0  0  0  0  0  0  0  0  0  0
    1.4739   -0.7209    0.0471 C   0  0  1  0  0  0  0  0  0  0  0  0
    0.5313    0.0578   -0.9067 C   0  0  1  0  0  0  0  0  0  0  0  0
    1.6570    0.0041    1.3911 C   0  0  0  0  0  0  0  0  0  0  0  0
    1.2001    2.2368    0.2818 C   0  0  1  0  0  0  0  0  0  0  0  0
    1.0128    1.5135   -1.0606 C   0  0  0  0  0  0  0  0  0  0  0  0
    2.1346    1.4416    1.1996 C   0  0  0  0  0  0  0  0  0  0  0  0
    1.0484   -2.1754    0.2901 C   0  0  0  0  0  0  0  0  0  0  0  0
    1.7388    3.6497    0.0603 C   0  0  0  0  0  0  0  0  0  0  0  0
    0.8305   -2.8925   -1.0375 C   0  0  0  0  0  0  0  0  0  0  0  0
    2.0926   -2.8993    1.1329 C   0  0  0  0  0  0  0  0  0  0  0  0
   -0.8733    0.0393   -0.4510 C   0  0  0  0  0  0  0  0  0  0  0  0
   -2.0153    0.0252   -0.0800 C   0  0  0  0  0  0  0  0  0  0  0  0
   -3.3881    0.0083    0.3666 C   0  0  0  0  0  0  0  0  0  0  0  0
   -4.2615    1.1222   -0.1291 C   0  0  0  0  0  0  0  0  0  0  0  0
    2.4601   -0.7524   -0.4425 H   0  0  0  0  0  0  0  0  0  0  0  0
    2.4079   -0.4915    2.0138 H   0  0  0  0  0  0  0  0  0  0  0  0
    0.7191    0.0013    1.9601 H   0  0  0  0  0  0  0  0  0  0  0  0
    0.2242    2.3293    0.7756 H   0  0  0  0  0  0  0  0  0  0  0  0
    0.3114    2.0791   -1.6900 H   0  0  0  0  0  0  0  0  0  0  0  0
    1.9629    1.5182   -1.6142 H   0  0  0  0  0  0  0  0  0  0  0  0
    2.2025    1.9327    2.1779 H   0  0  0  0  0  0  0  0  0  0  0  0
    3.1492    1.4312    0.7806 H   0  0  0  0  0  0  0  0  0  0  0  0
    0.1039   -2.2096    0.8477 H   0  0  0  0  0  0  0  0  0  0  0  0
    1.8468    4.1777    1.0137 H   0  0  0  0  0  0  0  0  0  0  0  0
    2.7184    3.6312   -0.4294 H   0  0  0  0  0  0  0  0  0  0  0  0
    1.0564    4.2308   -0.5689 H   0  0  0  0  0  0  0  0  0  0  0  0
    0.7526   -3.9741   -0.8706 H   0  0  0  0  0  0  0  0  0  0  0  0
    1.6642   -2.7447   -1.7321 H   0  0  0  0  0  0  0  0  0  0  0  0
   -0.1142   -2.6148   -1.5131 H   0  0  0  0  0  0  0  0  0  0  0  0
    1.8862   -3.9754    1.1627 H   0  0  0  0  0  0  0  0  0  0  0  0
    3.1022   -2.7703    0.7281 H   0  0  0  0  0  0  0  0  0  0  0  0
    2.0868   -2.5644    2.1742 H   0  0  0  0  0  0  0  0  0  0  0  0
    0.0428    0.0063   -2.8118 H   0  0  0  0  0  0  0  0  0  0  0  0
   -3.8598    2.0846    0.1993 H   0  0  0  0  0  0  0  0  0  0  0  0
   -5.2696    1.0051    0.2787 H   0  0  0  0  0  0  0  0  0  0  0  0
   -4.3185    1.0930   -1.2205 H   0  0  0  0  0  0  0  0  0  0  0  0
  1  4  1  0  0  0  0
  1 35  1  0  0  0  0
  2 15  2  0  0  0  0
  3  4  1  0  0  0  0
  3  5  1  0  0  0  0
  3  9  1  0  0  0  0
  3 17  1  0  0  0  0
  4  7  1  0  0  0  0
  4 13  1  0  0  0  0
  5  8  1  0  0  0  0
  5 18  1  0  0  0  0
  5 19  1  0  0  0  0
  6  7  1  0  0  0  0
  6  8  1  0  0  0  0
  6 10  1  0  0  0  0
  6 20  1  0  0  0  0
  7 21  1  0  0  0  0
  7 22  1  0  0  0  0
  8 23  1  0  0  0  0
  8 24  1  0  0  0  0
  9 11  1  0  0  0  0
  9 12  1  0  0  0  0
  9 25  1  0  0  0  0
 10 26  1  0  0  0  0
 10 27  1  0  0  0  0
 10 28  1  0  0  0  0
 11 29  1  0  0  0  0
 11 30  1  0  0  0  0
 11 31  1  0  0  0  0
 12 32  1  0  0  0  0
 12 33  1  0  0  0  0
 12 34  1  0  0  0  0
 13 14  3  0  0  0  0
 14 15  1  0  0  0  0
 15 16  1  0  0  0  0
 16 36  1  0  0  0  0
 16 37  1  0  0  0  0
 16 38  1  0  0  0  0
M  END
> <PUBCHEM_COMPOUND_CID>
536442

> <PUBCHEM_CONFORMER_RMSD>
0.6

> <PUBCHEM_CONFORMER_DIVERSEORDER>
3
22
19
17
12
16
2
23
14
9
21
4
18
5
20
15
13
8
6
7
1
10
11

> <PUBCHEM_MMFF94_PARTIAL_CHARGES>
8
1 -0.68
13 -0.2
14 -0.1
15 0.61
16 0.06
2 -0.57
35 0.4
4 0.48

> <PUBCHEM_EFFECTIVE_ROTOR_COUNT>
2.2

> <PUBCHEM_PHARMACOPHORE_FEATURES>
5
1 1 acceptor
1 1 donor
1 2 acceptor
3 9 11 12 hydrophobe
6 3 4 5 6 7 8 rings

> <PUBCHEM_HEAVY_ATOM_COUNT>
16

> <PUBCHEM_ATOM_DEF_STEREO_COUNT>
0

> <PUBCHEM_ATOM_UDEF_STEREO_COUNT>
3

> <PUBCHEM_BOND_DEF_STEREO_COUNT>
0

> <PUBCHEM_BOND_UDEF_STEREO_COUNT>
0

> <PUBCHEM_ISOTOPIC_ATOM_COUNT>
0

> <PUBCHEM_COMPONENT_COUNT>
1

> <PUBCHEM_CACTVS_TAUTO_COUNT>
2

> <PUBCHEM_CONFORMER_ID>
00082F7A00000003

> <PUBCHEM_MMFF94_ENERGY>
29.7382

> <PUBCHEM_FEATURE_SELFOVERLAP>
25.371

> <PUBCHEM_SHAPE_FINGERPRINT>
10922049 32 18122918782678388268
12725867 57 18196656198328204420
12824470 246 16812354441856924962
13134695 92 18264759961680171047
14817 1 17260468067999242918
15534591 1 17621317265977072956
15906896 17 17549538965098180662
16945 1 18264468702704688756
17041 49 18196379113388533481
20559304 39 18338243674055391377
20600515 1 17753894904716665703
20723712 36 18339625841734109304
21524375 3 17913488218650834509
21731228 192 18122905605470681184
2255824 54 18341899601535574399
23419403 2 17753865269689924806
23558518 356 17836070540129907454
2748010 2 17906697399078504432
298252 57 16520512522294871260
305870 269 18339637953267180537
427121 178 17981627157647610699
430814 3 18125713736851511480
7364860 26 18411142420036578853
81228 2 17329990192365414516
9999458 23 18336549429404967660

> <PUBCHEM_SHAPE_MULTIPOLES>
317.53
4.91
3.63
1.42
8.85
0.8
0.33
0.16
-1.81
-3.68
-0.15
-0.51
-0.36
0.16

> <PUBCHEM_SHAPE_SELFOVERLAP>
632.108

> <PUBCHEM_SHAPE_VOLUME>
187.3

> <PUBCHEM_COORDINATE_TYPE>
2
5
10

$$$$
