550058
  -OEChem-09102016083D

 55 58  0     1  0  0  0  0  0999 V2000
    5.2802    1.5897   -0.3721 O   0  0  0  0  0  0  0  0  0  0  0  0
   -6.6129    1.3858   -0.6713 O   0  0  0  0  0  0  0  0  0  0  0  0
    5.0330    3.5794    0.7757 O   0  0  0  0  0  0  0  0  0  0  0  0
    0.1294   -2.3394    0.4175 N   0  0  1  0  0  0  0  0  0  0  0  0
   -1.2589    1.1368    0.5078 N   0  0  0  0  0  0  0  0  0  0  0  0
    0.2312   -0.9173    0.8496 C   0  0  1  0  0  0  0  0  0  0  0  0
    2.7370   -1.0244    0.4994 C   0  0  1  0  0  0  0  0  0  0  0  0
    1.4434   -0.2586    0.1738 C   0  0  0  0  0  0  0  0  0  0  0  0
    2.5974   -2.5320    0.1833 C   0  0  1  0  0  0  0  0  0  0  0  0
    1.3179   -3.0989    0.8297 C   0  0  0  0  0  0  0  0  0  0  0  0
   -1.0535   -0.2134    0.5346 C   0  0  0  0  0  0  0  0  0  0  0  0
   -1.1139   -2.9749    0.9043 C   0  0  0  0  0  0  0  0  0  0  0  0
   -2.2578   -0.8387    0.2886 C   0  0  0  0  0  0  0  0  0  0  0  0
    3.9441   -0.3754   -0.1804 C   0  0  0  0  0  0  0  0  0  0  0  0
   -2.3644   -2.3236    0.2675 C   0  0  0  0  0  0  0  0  0  0  0  0
   -3.2332    0.1714    0.0717 C   0  0  0  0  0  0  0  0  0  0  0  0
    2.6254   -2.8560   -1.2851 C   0  0  0  0  0  0  0  0  0  0  0  0
   -2.5806    1.4007    0.2147 C   0  0  0  0  0  0  0  0  0  0  0  0
    4.1595    1.0437    0.3098 C   0  0  0  0  0  0  0  0  0  0  0  0
   -4.6097    0.1662   -0.2305 C   0  0  0  0  0  0  0  0  0  0  0  0
   -3.2420    2.6257    0.0698 C   0  0  0  0  0  0  0  0  0  0  0  0
    3.5485   -3.6323   -1.8627 C   0  0  0  0  0  0  0  0  0  0  0  0
   -5.2818    1.3846   -0.3790 C   0  0  0  0  0  0  0  0  0  0  0  0
   -4.6067    2.5942   -0.2305 C   0  0  0  0  0  0  0  0  0  0  0  0
    5.6106    2.8753   -0.0415 C   0  0  0  0  0  0  0  0  0  0  0  0
    6.8042    3.3155   -0.8338 C   0  0  0  0  0  0  0  0  0  0  0  0
   -7.2465    0.1160   -0.8108 C   0  0  0  0  0  0  0  0  0  0  0  0
    0.3652   -0.8778    1.9405 H   0  0  0  0  0  0  0  0  0  0  0  0
    2.8920   -0.9470    1.5861 H   0  0  0  0  0  0  0  0  0  0  0  0
    1.2942   -0.1981   -0.9126 H   0  0  0  0  0  0  0  0  0  0  0  0
    1.5101    0.7714    0.5382 H   0  0  0  0  0  0  0  0  0  0  0  0
    3.4467   -3.0402    0.6626 H   0  0  0  0  0  0  0  0  0  0  0  0
    1.2087   -4.1521    0.5391 H   0  0  0  0  0  0  0  0  0  0  0  0
    1.4197   -3.0827    1.9233 H   0  0  0  0  0  0  0  0  0  0  0  0
   -1.1710   -2.9055    1.9990 H   0  0  0  0  0  0  0  0  0  0  0  0
   -1.1253   -4.0409    0.6464 H   0  0  0  0  0  0  0  0  0  0  0  0
   -3.2612   -2.6523    0.8043 H   0  0  0  0  0  0  0  0  0  0  0  0
   -2.4586   -2.6549   -0.7740 H   0  0  0  0  0  0  0  0  0  0  0  0
    3.8264   -0.3621   -1.2711 H   0  0  0  0  0  0  0  0  0  0  0  0
    4.8500   -0.9631    0.0159 H   0  0  0  0  0  0  0  0  0  0  0  0
   -0.5546    1.8421    0.6753 H   0  0  0  0  0  0  0  0  0  0  0  0
    1.8492   -2.4318   -1.9173 H   0  0  0  0  0  0  0  0  0  0  0  0
    3.2992    1.6814    0.0895 H   0  0  0  0  0  0  0  0  0  0  0  0
    4.3487    1.0497    1.3896 H   0  0  0  0  0  0  0  0  0  0  0  0
   -5.0824   -0.8030   -0.3336 H   0  0  0  0  0  0  0  0  0  0  0  0
   -2.7180    3.5685    0.1856 H   0  0  0  0  0  0  0  0  0  0  0  0
    3.5132   -3.8263   -2.9291 H   0  0  0  0  0  0  0  0  0  0  0  0
    4.3503   -4.0847   -1.2898 H   0  0  0  0  0  0  0  0  0  0  0  0
   -5.1432    3.5328   -0.3484 H   0  0  0  0  0  0  0  0  0  0  0  0
    6.5723    3.2836   -1.9013 H   0  0  0  0  0  0  0  0  0  0  0  0
    7.6579    2.6726   -0.6055 H   0  0  0  0  0  0  0  0  0  0  0  0
    7.0600    4.3440   -0.5633 H   0  0  0  0  0  0  0  0  0  0  0  0
   -6.8324   -0.4514   -1.6513 H   0  0  0  0  0  0  0  0  0  0  0  0
   -8.2999    0.3047   -1.0428 H   0  0  0  0  0  0  0  0  0  0  0  0
   -7.2237   -0.4513    0.1259 H   0  0  0  0  0  0  0  0  0  0  0  0
  1 19  1  0  0  0  0
  1 25  1  0  0  0  0
  2 23  1  0  0  0  0
  2 27  1  0  0  0  0
  3 25  2  0  0  0  0
  4  6  1  0  0  0  0
  4 10  1  0  0  0  0
  4 12  1  0  0  0  0
  5 11  1  0  0  0  0
  5 18  1  0  0  0  0
  5 41  1  0  0  0  0
  6  8  1  0  0  0  0
  6 11  1  0  0  0  0
  6 28  1  0  0  0  0
  7  8  1  0  0  0  0
  7  9  1  0  0  0  0
  7 14  1  0  0  0  0
  7 29  1  0  0  0  0
  8 30  1  0  0  0  0
  8 31  1  0  0  0  0
  9 10  1  0  0  0  0
  9 17  1  0  0  0  0
  9 32  1  0  0  0  0
 10 33  1  0  0  0  0
 10 34  1  0  0  0  0
 11 13  2  0  0  0  0
 12 15  1  0  0  0  0
 12 35  1  0  0  0  0
 12 36  1  0  0  0  0
 13 15  1  0  0  0  0
 13 16  1  0  0  0  0
 14 19  1  0  0  0  0
 14 39  1  0  0  0  0
 14 40  1  0  0  0  0
 15 37  1  0  0  0  0
 15 38  1  0  0  0  0
 16 18  2  0  0  0  0
 16 20  1  0  0  0  0
 17 22  2  0  0  0  0
 17 42  1  0  0  0  0
 18 21  1  0  0  0  0
 19 43  1  0  0  0  0
 19 44  1  0  0  0  0
 20 23  2  0  0  0  0
 20 45  1  0  0  0  0
 21 24  2  0  0  0  0
 21 46  1  0  0  0  0
 22 47  1  0  0  0  0
 22 48  1  0  0  0  0
 23 24  1  0  0  0  0
 24 49  1  0  0  0  0
 25 26  1  0  0  0  0
 26 50  1  0  0  0  0
 26 51  1  0  0  0  0
 26 52  1  0  0  0  0
 27 53  1  0  0  0  0
 27 54  1  0  0  0  0
 27 55  1  0  0  0  0
M  END
> <PUBCHEM_COMPOUND_CID>
550058

> <PUBCHEM_CONFORMER_RMSD>
0.8

> <PUBCHEM_CONFORMER_DIVERSEORDER>
1
33
146
42
187
128
116
135
114
68
141
72
130
12
120
190
31
74
124
164
90
106
5
186
11
115
188
85
191
30
3
17
56
87
51
8
7
47
57
59
139
104
157
192
155
193
100
86
45
39
89
28
27
140
78
102
63
92
138
129
25
41
82
126
84
81
50
23
65
136
79
52
80
151
54
145
43
22
150
35
24
53
60
6
66
9
105
16
144
132
112
152
163
131
168
125
93
13
103
91
10
154
166
119
182
77
70
165
117
32
40
99
18
109
167
48
156
94
14
148
122
153
113
176
67
159
34
177
133
123
61
174
179
134
62
171
121
173
170
44
143
64
76
21
181
95
15
98
194
160
69
172
184
185
195
107
55
29
161
75
162
58
189
101
169
108
46
175
73
127
83
149
111
96
137
183
38
110
142
158
180
97
178
20
36
37
71
49
4
26
2
147
88
19
118

> <PUBCHEM_MMFF94_PARTIAL_CHARGES>
30
1 -0.43
10 0.27
11 -0.33
12 0.27
13 -0.18
15 0.18
17 -0.29
18 -0.15
19 0.28
2 -0.36
20 -0.15
21 -0.15
22 -0.3
23 0.08
24 -0.15
25 0.66
26 0.06
27 0.28
3 -0.57
4 -0.81
41 0.27
42 0.15
45 0.15
46 0.15
47 0.15
48 0.15
49 0.15
5 0.03
6 0.45
9 0.14

> <PUBCHEM_EFFECTIVE_ROTOR_COUNT>
7.2

> <PUBCHEM_PHARMACOPHORE_FEATURES>
10
1 2 acceptor
1 22 hydrophobe
1 3 acceptor
1 4 cation
1 5 cation
1 5 donor
5 5 11 13 16 18 rings
6 16 18 20 21 23 24 rings
6 4 6 11 12 13 15 rings
6 4 6 7 8 9 10 rings

> <PUBCHEM_HEAVY_ATOM_COUNT>
27

> <PUBCHEM_ATOM_DEF_STEREO_COUNT>
0

> <PUBCHEM_ATOM_UDEF_STEREO_COUNT>
3

> <PUBCHEM_BOND_DEF_STEREO_COUNT>
0

> <PUBCHEM_BOND_UDEF_STEREO_COUNT>
0

> <PUBCHEM_ISOTOPIC_ATOM_COUNT>
0

> <PUBCHEM_COMPONENT_COUNT>
1

> <PUBCHEM_CACTVS_TAUTO_COUNT>
1

> <PUBCHEM_CONFORMER_ID>
000864AA00000001

> <PUBCHEM_MMFF94_ENERGY>
60.811

> <PUBCHEM_FEATURE_SELFOVERLAP>
50.942

> <PUBCHEM_SHAPE_FINGERPRINT>
10050765 1 18335701667697456946
11135609 187 18408880733641572009
11796584 16 14188986974851799063
13150687 139 18272657866115408638
13540713 4 18263383484786960458
14528608 73 18191587458957858223
14790565 3 18267023843622352049
15198563 99 17478890945300222830
15961568 22 18187364324547363804
15979999 66 18054799378152757062
17844677 252 18195248815424526137
17980427 23 17604991605948148228
1813 80 13613656503200872243
18608769 82 18337674234717726579
18681886 176 18124867954912791474
20554085 129 18059560435141138648
21315764 268 18115298960817969340
21521721 280 18410297982944238553
22393880 68 18050845516737184191
23522609 53 17774453677061596873
23559900 14 18270683039673276362
239999 70 18198902505042885022
245318 6 17532952694944975548
2838139 119 18339076103452913620
3246875 12 18334858368016166067
335352 9 18336266744081305870
3472631 163 18334856138738209100
34797466 226 18270963441060578959
376196 1 18338796823268106858
44802255 64 17769110261319994476
46194498 28 18200595770034304950
5219985 13 18267583688567521788
53794403 172 18410296870046606940
6036956 94 17323523363203685869
6327066 14 18335984289567111324
633830 44 18195522602304489943
67856867 119 18189608358864420794
7288768 16 17895473725704800514
7808743 9 18335416932776537600
9981440 41 18188493604856829474

> <PUBCHEM_SHAPE_MULTIPOLES>
528.08
15.5
4.87
1.03
4.01
0.04
0.28
17.03
5.07
-7.67
0.6
-0.62
-0.69
1.24

> <PUBCHEM_SHAPE_SELFOVERLAP>
1130.173

> <PUBCHEM_SHAPE_VOLUME>
291.3

> <PUBCHEM_COORDINATE_TYPE>
2
5
10

$$$$
