101277340
  -OEChem-09102013103D

 69 73  0     1  0  0  0  0  0999 V2000
    0.6802   -1.9622    0.5906 O   0  0  0  0  0  0  0  0  0  0  0  0
    4.8690    1.3098    0.2144 O   0  0  0  0  0  0  0  0  0  0  0  0
   -6.7487    0.6506    1.4892 O   0  0  0  0  0  0  0  0  0  0  0  0
    5.0525    1.4884    2.4887 O   0  0  0  0  0  0  0  0  0  0  0  0
    1.1882   -4.1587    0.0866 O   0  0  0  0  0  0  0  0  0  0  0  0
   -0.0648   -0.4041   -1.1326 C   0  0  2  0  0  0  0  0  0  0  0  0
    0.4389    0.8738   -0.3711 C   0  0  1  0  0  0  0  0  0  0  0  0
    1.9962    1.2433   -0.5322 C   0  0  1  0  0  0  0  0  0  0  0  0
   -2.4132    0.3486   -0.1189 C   0  0  1  0  0  0  0  0  0  0  0  0
    2.8384   -0.0693   -0.2161 C   0  0  1  0  0  0  0  0  0  0  0  0
   -1.5115   -0.7119   -0.7286 C   0  0  0  0  0  0  0  0  0  0  0  0
    0.8544   -1.6021   -0.7845 C   0  0  1  0  0  0  0  0  0  0  0  0
   -0.5522    2.0744   -0.5202 C   0  0  0  0  0  0  0  0  0  0  0  0
   -2.0363    1.7132   -0.7018 C   0  0  0  0  0  0  0  0  0  0  0  0
    2.3351   -1.2978   -1.0125 C   0  0  0  0  0  0  0  0  0  0  0  0
   -3.8043   -0.1620   -0.6242 C   0  0  1  0  0  0  0  0  0  0  0  0
   -0.0926   -0.2061   -2.6698 C   0  0  0  0  0  0  0  0  0  0  0  0
    4.4106    0.0281   -0.2706 C   0  0  0  0  0  0  0  0  0  0  0  0
   -2.2007   -1.8422   -0.9655 C   0  0  0  0  0  0  0  0  0  0  0  0
   -3.6508   -1.6977   -0.6318 C   0  0  0  0  0  0  0  0  0  0  0  0
    2.3350    1.8262   -1.9175 C   0  0  0  0  0  0  0  0  0  0  0  0
    2.2877    2.3869    0.4592 C   0  0  0  0  0  0  0  0  0  0  0  0
   -2.3370    0.3519    1.4231 C   0  0  0  0  0  0  0  0  0  0  0  0
   -5.0332    0.4020    0.0584 C   0  0  0  0  0  0  0  0  0  0  0  0
    5.0609   -1.0728    0.6004 C   0  0  0  0  0  0  0  0  0  0  0  0
    5.0195   -0.1073   -1.6769 C   0  0  0  0  0  0  0  0  0  0  0  0
    3.2852    2.5647    1.3341 C   0  0  0  0  0  0  0  0  0  0  0  0
    4.4497    1.6830    1.4447 C   0  0  0  0  0  0  0  0  0  0  0  0
   -5.7405    1.5763   -0.2937 C   0  0  0  0  0  0  0  0  0  0  0  0
   -5.6858   -0.1246    1.1487 C   0  0  0  0  0  0  0  0  0  0  0  0
    0.8804   -3.2788    0.8792 C   0  0  0  0  0  0  0  0  0  0  0  0
   -6.7750    1.6836    0.6066 C   0  0  0  0  0  0  0  0  0  0  0  0
    0.6647   -3.5072    2.3446 C   0  0  0  0  0  0  0  0  0  0  0  0
    0.3738    0.6066    0.6939 H   0  0  0  0  0  0  0  0  0  0  0  0
    2.6070   -0.2865    0.8391 H   0  0  0  0  0  0  0  0  0  0  0  0
    0.5797   -2.4481   -1.4297 H   0  0  0  0  0  0  0  0  0  0  0  0
   -0.2675    2.7297   -1.3480 H   0  0  0  0  0  0  0  0  0  0  0  0
   -0.4902    2.6885    0.3869 H   0  0  0  0  0  0  0  0  0  0  0  0
   -2.6563    2.5052   -0.2629 H   0  0  0  0  0  0  0  0  0  0  0  0
   -2.2622    1.7345   -1.7762 H   0  0  0  0  0  0  0  0  0  0  0  0
    2.5236   -1.1637   -2.0814 H   0  0  0  0  0  0  0  0  0  0  0  0
    2.9125   -2.1789   -0.7132 H   0  0  0  0  0  0  0  0  0  0  0  0
   -3.9063    0.1337   -1.6833 H   0  0  0  0  0  0  0  0  0  0  0  0
    0.8974   -0.2102   -3.1232 H   0  0  0  0  0  0  0  0  0  0  0  0
   -0.5773    0.7307   -2.9604 H   0  0  0  0  0  0  0  0  0  0  0  0
   -0.6392   -1.0167   -3.1682 H   0  0  0  0  0  0  0  0  0  0  0  0
   -1.7930   -2.7342   -1.4189 H   0  0  0  0  0  0  0  0  0  0  0  0
   -4.2882   -2.1466   -1.4002 H   0  0  0  0  0  0  0  0  0  0  0  0
   -3.8709   -2.1708    0.3301 H   0  0  0  0  0  0  0  0  0  0  0  0
    2.4232    1.0616   -2.6891 H   0  0  0  0  0  0  0  0  0  0  0  0
    3.2927    2.3607   -1.9015 H   0  0  0  0  0  0  0  0  0  0  0  0
    1.5959    2.5539   -2.2625 H   0  0  0  0  0  0  0  0  0  0  0  0
    1.5667    3.2025    0.4541 H   0  0  0  0  0  0  0  0  0  0  0  0
   -2.6270   -0.6164    1.8468 H   0  0  0  0  0  0  0  0  0  0  0  0
   -1.3381    0.5701    1.8051 H   0  0  0  0  0  0  0  0  0  0  0  0
   -3.0011    1.1137    1.8462 H   0  0  0  0  0  0  0  0  0  0  0  0
    6.1102    0.0049   -1.6301 H   0  0  0  0  0  0  0  0  0  0  0  0
    4.6800    0.6765   -2.3557 H   0  0  0  0  0  0  0  0  0  0  0  0
    4.8105   -1.0796   -2.1327 H   0  0  0  0  0  0  0  0  0  0  0  0
    4.9296   -2.0714    0.1733 H   0  0  0  0  0  0  0  0  0  0  0  0
    6.1364   -0.8915    0.7140 H   0  0  0  0  0  0  0  0  0  0  0  0
    4.6413   -1.0838    1.6123 H   0  0  0  0  0  0  0  0  0  0  0  0
    3.2726    3.4223    1.9998 H   0  0  0  0  0  0  0  0  0  0  0  0
   -5.5252    2.2615   -1.1011 H   0  0  0  0  0  0  0  0  0  0  0  0
   -5.5311   -0.9950    1.7698 H   0  0  0  0  0  0  0  0  0  0  0  0
   -7.5730    2.3979    0.7467 H   0  0  0  0  0  0  0  0  0  0  0  0
    1.3834   -2.9185    2.9204 H   0  0  0  0  0  0  0  0  0  0  0  0
    0.8176   -4.5657    2.5733 H   0  0  0  0  0  0  0  0  0  0  0  0
   -0.3593   -3.2369    2.6146 H   0  0  0  0  0  0  0  0  0  0  0  0
  1 12  1  0  0  0  0
  1 31  1  0  0  0  0
  2 18  1  0  0  0  0
  2 28  1  0  0  0  0
  3 30  1  0  0  0  0
  3 32  1  0  0  0  0
  4 28  2  0  0  0  0
  5 31  2  0  0  0  0
  6  7  1  0  0  0  0
  6 11  1  0  0  0  0
  6 12  1  0  0  0  0
  6 17  1  0  0  0  0
  7  8  1  0  0  0  0
  7 13  1  0  0  0  0
  7 34  1  0  0  0  0
  8 10  1  0  0  0  0
  8 21  1  0  0  0  0
  8 22  1  0  0  0  0
  9 11  1  0  0  0  0
  9 14  1  0  0  0  0
  9 16  1  0  0  0  0
  9 23  1  0  0  0  0
 10 15  1  0  0  0  0
 10 18  1  0  0  0  0
 10 35  1  0  0  0  0
 11 19  2  0  0  0  0
 12 15  1  0  0  0  0
 12 36  1  0  0  0  0
 13 14  1  0  0  0  0
 13 37  1  0  0  0  0
 13 38  1  0  0  0  0
 14 39  1  0  0  0  0
 14 40  1  0  0  0  0
 15 41  1  0  0  0  0
 15 42  1  0  0  0  0
 16 20  1  0  0  0  0
 16 24  1  0  0  0  0
 16 43  1  0  0  0  0
 17 44  1  0  0  0  0
 17 45  1  0  0  0  0
 17 46  1  0  0  0  0
 18 25  1  0  0  0  0
 18 26  1  0  0  0  0
 19 20  1  0  0  0  0
 19 47  1  0  0  0  0
 20 48  1  0  0  0  0
 20 49  1  0  0  0  0
 21 50  1  0  0  0  0
 21 51  1  0  0  0  0
 21 52  1  0  0  0  0
 22 27  2  0  0  0  0
 22 53  1  0  0  0  0
 23 54  1  0  0  0  0
 23 55  1  0  0  0  0
 23 56  1  0  0  0  0
 24 29  1  0  0  0  0
 24 30  2  0  0  0  0
 25 60  1  0  0  0  0
 25 61  1  0  0  0  0
 25 62  1  0  0  0  0
 26 57  1  0  0  0  0
 26 58  1  0  0  0  0
 26 59  1  0  0  0  0
 27 28  1  0  0  0  0
 27 63  1  0  0  0  0
 29 32  2  0  0  0  0
 29 64  1  0  0  0  0
 30 65  1  0  0  0  0
 31 33  1  0  0  0  0
 32 66  1  0  0  0  0
 33 67  1  0  0  0  0
 33 68  1  0  0  0  0
 33 69  1  0  0  0  0
M  END
> <PUBCHEM_COMPOUND_CID>
101277340

> <PUBCHEM_CONFORMER_RMSD>
0.8

> <PUBCHEM_CONFORMER_DIVERSEORDER>
1

> <PUBCHEM_MMFF94_PARTIAL_CHARGES>
29
1 -0.43
11 -0.28
12 0.28
16 0.18
18 0.28
19 -0.29
2 -0.43
20 0.14
22 -0.29
24 -0.18
27 -0.14
28 0.71
29 -0.15
3 -0.28
30 -0.01
31 0.66
32 -0.01
33 0.06
4 -0.57
47 0.15
5 -0.57
53 0.15
6 0.14
63 0.15
64 0.15
65 0.15
66 0.15
8 0.14
9 0.14

> <PUBCHEM_EFFECTIVE_ROTOR_COUNT>
4.6

> <PUBCHEM_PHARMACOPHORE_FEATURES>
9
1 3 acceptor
1 4 acceptor
1 5 acceptor
3 18 25 26 hydrophobe
5 3 24 29 30 32 rings
5 9 11 16 19 20 rings
6 6 7 8 10 12 15 rings
6 6 7 9 11 13 14 rings
7 2 8 10 18 22 27 28 rings

> <PUBCHEM_HEAVY_ATOM_COUNT>
33

> <PUBCHEM_ATOM_DEF_STEREO_COUNT>
7

> <PUBCHEM_ATOM_UDEF_STEREO_COUNT>
0

> <PUBCHEM_BOND_DEF_STEREO_COUNT>
0

> <PUBCHEM_BOND_UDEF_STEREO_COUNT>
0

> <PUBCHEM_ISOTOPIC_ATOM_COUNT>
0

> <PUBCHEM_COMPONENT_COUNT>
1

> <PUBCHEM_CACTVS_TAUTO_COUNT>
2

> <PUBCHEM_CONFORMER_ID>
06095E9C00000001

> <PUBCHEM_MMFF94_ENERGY>
135.0527

> <PUBCHEM_FEATURE_SELFOVERLAP>
45.76

> <PUBCHEM_SHAPE_FINGERPRINT>
10006869 2 18198616628225602517
10165383 225 18187938270212434230
10906281 52 18195526111667459940
11534866 41 17749402451441954955
11578080 2 15625071292227444690
12166972 35 13542471947154353472
12236239 1 17132114637222591381
12422481 6 18408599262664124389
12623949 98 13335006167434903144
13140716 1 18338516442827360175
13583140 156 18334869303514649939
13692114 37 18263083378669537267
13726171 33 17680728204885573292
13782708 43 15068618310138951953
14178342 30 18189902088110969783
14790565 3 18336834203069743925
15420108 30 18342443864261059399
17349148 13 17240488026573366117
1813 80 17385999606869240604
20511986 3 18059282215591512117
20691752 17 18189320411740980772
20715895 44 17418096515915649617
20832881 197 18342741793489037118
21033648 29 18340764957413180832
21421861 104 18116148879190750987
21859007 373 18190735337547163317
22182313 1 18116425956421728957
22956985 138 17243566495870317082
23559900 14 17417821599649347735
23569914 152 11462303772835514947
3178227 256 18334586723792379928
34934 24 18343300358191211271
350125 39 18411986849172598828
3680242 22 18410567375460533690
376196 1 17916298514552413084
392239 28 18336815468295564290
4093350 32 16630531726050200292
4340502 62 18408889529507175691
465052 167 16588025714458275416
5104073 3 18271241724533937771
58807428 26 18334848450477951346
59755656 215 18272098149317721972
633830 44 18271517705914849302
70251023 43 17834969576445236374

> <PUBCHEM_SHAPE_MULTIPOLES>
649.78
12.87
3.37
1.9
13.45
2.89
0.17
-6.63
4.7
-1.87
1.38
-1.27
0.09
0.26

> <PUBCHEM_SHAPE_SELFOVERLAP>
1405.988

> <PUBCHEM_SHAPE_VOLUME>
350.8

> <PUBCHEM_COORDINATE_TYPE>
2
5
10

$$$$
