122844
  -OEChem-09102013043D

 79 83  0     1  0  0  0  0  0999 V2000
    4.6857   -2.7614    1.1199 O   0  0  0  0  0  0  0  0  0  0  0  0
    3.3752   -1.1780    2.1054 O   0  0  0  0  0  0  0  0  0  0  0  0
   -6.7349    1.1867    0.6578 O   0  0  0  0  0  0  0  0  0  0  0  0
    0.8183   -0.8140   -0.6922 C   0  0  1  0  0  0  0  0  0  0  0  0
   -0.6587   -0.9471   -0.0141 C   0  0  1  0  0  0  0  0  0  0  0  0
   -1.3263    0.4847    0.0345 C   0  0  1  0  0  0  0  0  0  0  0  0
    1.6713    0.2257    0.1470 C   0  0  1  0  0  0  0  0  0  0  0  0
   -2.8718    0.5639    0.4052 C   0  0  2  0  0  0  0  0  0  0  0  0
    3.1248    0.3010   -0.3706 C   0  0  2  0  0  0  0  0  0  0  0  0
    3.8079   -1.0761   -0.2884 C   0  0  1  0  0  0  0  0  0  0  0  0
   -3.6585   -0.4802   -0.4652 C   0  0  1  0  0  0  0  0  0  0  0  0
    1.5807   -2.1861   -0.7404 C   0  0  0  0  0  0  0  0  0  0  0  0
   -1.5788   -1.8907   -0.8366 C   0  0  0  0  0  0  0  0  0  0  0  0
   -0.4408    1.4900    0.8022 C   0  0  0  0  0  0  0  0  0  0  0  0
    0.9779    1.5903    0.2359 C   0  0  0  0  0  0  0  0  0  0  0  0
    3.0648   -2.0899   -1.1578 C   0  0  0  0  0  0  0  0  0  0  0  0
   -3.0415   -1.8881   -0.3867 C   0  0  0  0  0  0  0  0  0  0  0  0
    4.1441    1.2378    0.3062 C   0  0  1  0  0  0  0  0  0  0  0  0
    0.7070   -0.3473   -2.1834 C   0  0  0  0  0  0  0  0  0  0  0  0
   -0.5294   -1.5669    1.4087 C   0  0  0  0  0  0  0  0  0  0  0  0
    5.2288   -0.7349   -0.7331 C   0  0  0  0  0  0  0  0  0  0  0  0
   -3.3884    1.9985    0.0267 C   0  0  0  0  0  0  0  0  0  0  0  0
   -5.2165   -0.4725   -0.2586 C   0  0  0  0  0  0  0  0  0  0  0  0
    5.5149    0.6263   -0.0718 C   0  0  0  0  0  0  0  0  0  0  0  0
   -3.1348    0.3923    1.9196 C   0  0  0  0  0  0  0  0  0  0  0  0
   -4.8312    2.0786   -0.4626 C   0  0  0  0  0  0  0  0  0  0  0  0
    3.9112   -1.6491    1.1133 C   0  0  0  0  0  0  0  0  0  0  0  0
   -5.6815    0.9523    0.0650 C   0  0  0  0  0  0  0  0  0  0  0  0
    4.0560    2.6678   -0.1204 C   0  0  0  0  0  0  0  0  0  0  0  0
   -5.7173   -1.4299    0.8394 C   0  0  0  0  0  0  0  0  0  0  0  0
   -5.9172   -0.8725   -1.5753 C   0  0  0  0  0  0  0  0  0  0  0  0
    4.2026    2.9298   -1.5900 C   0  0  0  0  0  0  0  0  0  0  0  0
    3.8567    3.6594    0.7604 C   0  0  0  0  0  0  0  0  0  0  0  0
   -1.3186    0.8359   -1.0047 H   0  0  0  0  0  0  0  0  0  0  0  0
    1.7014   -0.1227    1.1771 H   0  0  0  0  0  0  0  0  0  0  0  0
    3.0826    0.5814   -1.4280 H   0  0  0  0  0  0  0  0  0  0  0  0
   -3.4940   -0.1558   -1.5063 H   0  0  0  0  0  0  0  0  0  0  0  0
    1.0736   -2.8743   -1.4276 H   0  0  0  0  0  0  0  0  0  0  0  0
    1.5624   -2.6708    0.2387 H   0  0  0  0  0  0  0  0  0  0  0  0
   -1.2023   -2.9198   -0.7947 H   0  0  0  0  0  0  0  0  0  0  0  0
   -1.5800   -1.6070   -1.8930 H   0  0  0  0  0  0  0  0  0  0  0  0
   -0.3743    1.2184    1.8607 H   0  0  0  0  0  0  0  0  0  0  0  0
   -0.8810    2.4925    0.7732 H   0  0  0  0  0  0  0  0  0  0  0  0
    0.9557    2.0822   -0.7427 H   0  0  0  0  0  0  0  0  0  0  0  0
    1.5341    2.2472    0.9093 H   0  0  0  0  0  0  0  0  0  0  0  0
    3.5158   -3.0875   -1.0877 H   0  0  0  0  0  0  0  0  0  0  0  0
    3.1361   -1.8102   -2.2151 H   0  0  0  0  0  0  0  0  0  0  0  0
   -3.5916   -2.5689   -1.0473 H   0  0  0  0  0  0  0  0  0  0  0  0
   -3.1297   -2.3072    0.6196 H   0  0  0  0  0  0  0  0  0  0  0  0
    4.0279    1.1742    1.3961 H   0  0  0  0  0  0  0  0  0  0  0  0
    0.1960    0.6092   -2.3033 H   0  0  0  0  0  0  0  0  0  0  0  0
    1.6798   -0.2240   -2.6648 H   0  0  0  0  0  0  0  0  0  0  0  0
    0.1826   -1.0844   -2.7986 H   0  0  0  0  0  0  0  0  0  0  0  0
    0.0702   -0.9654    2.0937 H   0  0  0  0  0  0  0  0  0  0  0  0
   -1.4894   -1.7146    1.8965 H   0  0  0  0  0  0  0  0  0  0  0  0
   -0.0918   -2.5683    1.3779 H   0  0  0  0  0  0  0  0  0  0  0  0
    5.2649   -0.6124   -1.8234 H   0  0  0  0  0  0  0  0  0  0  0  0
    5.9948   -1.4705   -0.4691 H   0  0  0  0  0  0  0  0  0  0  0  0
   -2.7673    2.4382   -0.7645 H   0  0  0  0  0  0  0  0  0  0  0  0
   -3.2696    2.6721    0.8862 H   0  0  0  0  0  0  0  0  0  0  0  0
    6.0857    0.4613    0.8518 H   0  0  0  0  0  0  0  0  0  0  0  0
    6.1572    1.2417   -0.7073 H   0  0  0  0  0  0  0  0  0  0  0  0
   -2.4194    0.9516    2.5284 H   0  0  0  0  0  0  0  0  0  0  0  0
   -4.1210    0.7741    2.2053 H   0  0  0  0  0  0  0  0  0  0  0  0
   -3.1096   -0.6467    2.2443 H   0  0  0  0  0  0  0  0  0  0  0  0
   -4.8669    2.0374   -1.5574 H   0  0  0  0  0  0  0  0  0  0  0  0
   -5.2725    3.0372   -0.1681 H   0  0  0  0  0  0  0  0  0  0  0  0
   -5.3044   -1.1915    1.8218 H   0  0  0  0  0  0  0  0  0  0  0  0
   -6.8083   -1.3772    0.9417 H   0  0  0  0  0  0  0  0  0  0  0  0
   -5.4765   -2.4734    0.6118 H   0  0  0  0  0  0  0  0  0  0  0  0
   -7.0077   -0.8104   -1.4778 H   0  0  0  0  0  0  0  0  0  0  0  0
   -5.6353   -0.2070   -2.3993 H   0  0  0  0  0  0  0  0  0  0  0  0
   -5.6679   -1.8969   -1.8702 H   0  0  0  0  0  0  0  0  0  0  0  0
    5.0772    2.4471   -2.0305 H   0  0  0  0  0  0  0  0  0  0  0  0
    3.3129    2.6037   -2.1373 H   0  0  0  0  0  0  0  0  0  0  0  0
    4.3122    4.0028   -1.7879 H   0  0  0  0  0  0  0  0  0  0  0  0
    4.7656   -3.1467    2.0184 H   0  0  0  0  0  0  0  0  0  0  0  0
    3.7919    4.6938    0.4398 H   0  0  0  0  0  0  0  0  0  0  0  0
    3.7525    3.4620    1.8222 H   0  0  0  0  0  0  0  0  0  0  0  0
  1 27  1  0  0  0  0
  1 77  1  0  0  0  0
  2 27  2  0  0  0  0
  3 28  2  0  0  0  0
  4  5  1  0  0  0  0
  4  7  1  0  0  0  0
  4 12  1  0  0  0  0
  4 19  1  0  0  0  0
  5  6  1  0  0  0  0
  5 13  1  0  0  0  0
  5 20  1  0  0  0  0
  6  8  1  0  0  0  0
  6 14  1  0  0  0  0
  6 34  1  0  0  0  0
  7  9  1  0  0  0  0
  7 15  1  0  0  0  0
  7 35  1  0  0  0  0
  8 11  1  0  0  0  0
  8 22  1  0  0  0  0
  8 25  1  0  0  0  0
  9 10  1  0  0  0  0
  9 18  1  0  0  0  0
  9 36  1  0  0  0  0
 10 16  1  0  0  0  0
 10 21  1  0  0  0  0
 10 27  1  0  0  0  0
 11 17  1  0  0  0  0
 11 23  1  0  0  0  0
 11 37  1  0  0  0  0
 12 16  1  0  0  0  0
 12 38  1  0  0  0  0
 12 39  1  0  0  0  0
 13 17  1  0  0  0  0
 13 40  1  0  0  0  0
 13 41  1  0  0  0  0
 14 15  1  0  0  0  0
 14 42  1  0  0  0  0
 14 43  1  0  0  0  0
 15 44  1  0  0  0  0
 15 45  1  0  0  0  0
 16 46  1  0  0  0  0
 16 47  1  0  0  0  0
 17 48  1  0  0  0  0
 17 49  1  0  0  0  0
 18 24  1  0  0  0  0
 18 29  1  0  0  0  0
 18 50  1  0  0  0  0
 19 51  1  0  0  0  0
 19 52  1  0  0  0  0
 19 53  1  0  0  0  0
 20 54  1  0  0  0  0
 20 55  1  0  0  0  0
 20 56  1  0  0  0  0
 21 24  1  0  0  0  0
 21 57  1  0  0  0  0
 21 58  1  0  0  0  0
 22 26  1  0  0  0  0
 22 59  1  0  0  0  0
 22 60  1  0  0  0  0
 23 28  1  0  0  0  0
 23 30  1  0  0  0  0
 23 31  1  0  0  0  0
 24 61  1  0  0  0  0
 24 62  1  0  0  0  0
 25 63  1  0  0  0  0
 25 64  1  0  0  0  0
 25 65  1  0  0  0  0
 26 28  1  0  0  0  0
 26 66  1  0  0  0  0
 26 67  1  0  0  0  0
 29 32  1  0  0  0  0
 29 33  2  0  0  0  0
 30 68  1  0  0  0  0
 30 69  1  0  0  0  0
 30 70  1  0  0  0  0
 31 71  1  0  0  0  0
 31 72  1  0  0  0  0
 31 73  1  0  0  0  0
 32 74  1  0  0  0  0
 32 75  1  0  0  0  0
 32 76  1  0  0  0  0
 33 78  1  0  0  0  0
 33 79  1  0  0  0  0
M  END
> <PUBCHEM_COMPOUND_CID>
122844

> <PUBCHEM_CONFORMER_RMSD>
0.8

> <PUBCHEM_CONFORMER_DIVERSEORDER>
1

> <PUBCHEM_MMFF94_PARTIAL_CHARGES>
15
1 -0.65
10 0.06
18 0.14
2 -0.57
23 0.06
26 0.06
27 0.66
28 0.45
29 -0.28
3 -0.57
32 0.14
33 -0.3
77 0.5
78 0.15
79 0.15

> <PUBCHEM_EFFECTIVE_ROTOR_COUNT>
4.4

> <PUBCHEM_PHARMACOPHORE_FEATURES>
10
1 1 acceptor
1 2 acceptor
1 3 acceptor
3 1 2 27 anion
3 23 30 31 hydrophobe
5 9 10 18 21 24 rings
6 4 5 6 7 14 15 rings
6 4 7 9 10 12 16 rings
6 5 6 8 11 13 17 rings
6 8 11 22 23 26 28 rings

> <PUBCHEM_HEAVY_ATOM_COUNT>
33

> <PUBCHEM_ATOM_DEF_STEREO_COUNT>
9

> <PUBCHEM_ATOM_UDEF_STEREO_COUNT>
0

> <PUBCHEM_BOND_DEF_STEREO_COUNT>
0

> <PUBCHEM_BOND_UDEF_STEREO_COUNT>
0

> <PUBCHEM_ISOTOPIC_ATOM_COUNT>
0

> <PUBCHEM_COMPONENT_COUNT>
1

> <PUBCHEM_CACTVS_TAUTO_COUNT>
2

> <PUBCHEM_CONFORMER_ID>
0001DFDC00000001

> <PUBCHEM_MMFF94_ENERGY>
153.4573

> <PUBCHEM_FEATURE_SELFOVERLAP>
50.899

> <PUBCHEM_SHAPE_FINGERPRINT>
10554248 39 18341602695100105141
10906281 52 17917448526943680103
11578080 2 17459771374178958440
12107183 9 17977099063652803208
12166972 35 18059857229896876498
12236239 1 18187083923259313283
12403260 363 18340765944775565153
12633257 1 18339075995704457690
12788726 201 17203059508228867321
13224815 77 17988927760216010794
13533116 47 18040995090542602258
13583140 156 18113629975160305344
13782708 43 17822291236766760659
13785724 45 17908142084275230806
13811026 1 18410007771582145027
14528608 73 18343304798702195964
14790565 3 18270964656003456743
15183329 4 18342453730042875141
15196674 1 18341895199431498709
15788980 27 18341612590609912515
17349148 13 17989205936668303109
17844677 252 18408046195398509977
18681886 176 18202561779225283090
20511986 3 18270951431936555564
20715895 44 18196932171795154933
21033648 144 18336254756009691404
21033648 29 17168130248296201133
21267235 1 18271536337615283086
21315764 268 18334008359528686357
21859007 373 17533204285781522029
22149856 69 17703802409913972587
23522609 53 17914924086986181793
23559900 14 18202006478234440310
255183 451 17771919229555465686
2838139 119 18272086140805667221
3004659 81 18412545392700057420
335352 9 18341898494156666438
3411729 13 18337107973360428320
34797466 226 17989496233629283007
3493558 16 18412270536099963349
350125 39 18412263948009956508
3680242 22 18339925917902546107
4073 2 18114187496190635906
4325135 7 18131068238688824703
4340502 62 17967530220478818970
474 4 18042126634442458580
5104073 3 18410016533378661657
5283173 99 18337107869933177021
6036956 94 16320611636110750180
6086070 43 18044074783671992756
67856867 119 18412822503736891700

> <PUBCHEM_SHAPE_MULTIPOLES>
661.52
14.44
3.14
1.47
10.63
1.43
-0.05
2.71
0.21
-3.34
-0.02
-0.27
-0.33
-0.89

> <PUBCHEM_SHAPE_SELFOVERLAP>
1412.931

> <PUBCHEM_SHAPE_VOLUME>
365.6

> <PUBCHEM_COORDINATE_TYPE>
2
5
10

$$$$
