3034112
  -OEChem-09102013093D

 64 69  0     1  0  0  0  0  0999 V2000
   -1.7610   -1.9542   -1.3523 O   0  0  0  0  0  0  0  0  0  0  0  0
   -3.8622   -1.3720    0.4733 O   0  0  0  0  0  0  0  0  0  0  0  0
    1.0559   -2.0384    1.1849 O   0  0  0  0  0  0  0  0  0  0  0  0
   -3.4085   -3.4692    1.2202 O   0  0  0  0  0  0  0  0  0  0  0  0
    6.1646    1.5408    1.4087 O   0  0  0  0  0  0  0  0  0  0  0  0
   -5.8062    2.2687    1.1001 O   0  0  0  0  0  0  0  0  0  0  0  0
   -1.1034   -1.0577   -0.4111 C   0  0  1  0  0  0  0  0  0  0  0  0
    0.4052   -0.8470   -0.8416 C   0  0  1  0  0  0  0  0  0  0  0  0
    0.9176    0.5556   -0.3368 C   0  0  1  0  0  0  0  0  0  0  0  0
   -1.9547    0.1660   -0.0170 C   0  0  1  0  0  0  0  0  0  0  0  0
   -1.7131   -2.3999   -0.0095 C   0  0  1  0  0  0  0  0  0  0  0  0
    2.4747    0.8440   -0.5197 C   0  0  1  0  0  0  0  0  0  0  0  0
    1.3082   -1.9549   -0.2237 C   0  0  1  0  0  0  0  0  0  0  0  0
   -0.0159    1.7138   -0.7643 C   0  0  0  0  0  0  0  0  0  0  0  0
   -1.5017    1.3558   -0.8856 C   0  0  0  0  0  0  0  0  0  0  0  0
    3.2439   -0.3407    0.1691 C   0  0  1  0  0  0  0  0  0  0  0  0
    2.8141   -1.7048   -0.4149 C   0  0  0  0  0  0  0  0  0  0  0  0
   -3.4656   -0.1932   -0.2984 C   0  0  2  0  0  0  0  0  0  0  0  0
    0.4876   -0.9585   -2.3914 C   0  0  0  0  0  0  0  0  0  0  0  0
   -1.8114    0.4848    1.4950 C   0  0  0  0  0  0  0  0  0  0  0  0
    4.7882   -0.1412    0.3250 C   0  0  0  0  0  0  0  0  0  0  0  0
   -3.0563   -2.4680    0.6092 C   0  0  0  0  0  0  0  0  0  0  0  0
    2.8806    1.0824   -1.9914 C   0  0  0  0  0  0  0  0  0  0  0  0
    2.8737    2.1170    0.2168 C   0  0  0  0  0  0  0  0  0  0  0  0
   -4.4102    0.9135   -0.0026 C   0  0  0  0  0  0  0  0  0  0  0  0
    5.0731    1.2495    0.9165 C   0  0  0  0  0  0  0  0  0  0  0  0
    4.0273    2.2988    0.8685 C   0  0  0  0  0  0  0  0  0  0  0  0
    5.3454   -1.1752    1.3356 C   0  0  0  0  0  0  0  0  0  0  0  0
    5.5976   -0.2825   -0.9721 C   0  0  0  0  0  0  0  0  0  0  0  0
   -4.8669    1.8917   -0.9068 C   0  0  0  0  0  0  0  0  0  0  0  0
   -5.0030    1.1775    1.2023 C   0  0  0  0  0  0  0  0  0  0  0  0
   -5.7177    2.6974   -0.1863 C   0  0  0  0  0  0  0  0  0  0  0  0
    0.8105    0.5453    0.7508 H   0  0  0  0  0  0  0  0  0  0  0  0
   -1.0617   -3.2350    0.2095 H   0  0  0  0  0  0  0  0  0  0  0  0
    1.0610   -2.9349   -0.6473 H   0  0  0  0  0  0  0  0  0  0  0  0
    0.2985    2.1605   -1.7119 H   0  0  0  0  0  0  0  0  0  0  0  0
    0.0627    2.5163   -0.0199 H   0  0  0  0  0  0  0  0  0  0  0  0
   -2.0787    2.2581   -0.6522 H   0  0  0  0  0  0  0  0  0  0  0  0
   -1.7171    1.1306   -1.9383 H   0  0  0  0  0  0  0  0  0  0  0  0
    2.8932   -0.3400    1.2133 H   0  0  0  0  0  0  0  0  0  0  0  0
    3.0863   -1.7914   -1.4701 H   0  0  0  0  0  0  0  0  0  0  0  0
    3.3422   -2.5087    0.1082 H   0  0  0  0  0  0  0  0  0  0  0  0
   -3.6065   -0.4604   -1.3547 H   0  0  0  0  0  0  0  0  0  0  0  0
   -0.1141   -0.1928   -2.8891 H   0  0  0  0  0  0  0  0  0  0  0  0
    1.5000   -0.8894   -2.7801 H   0  0  0  0  0  0  0  0  0  0  0  0
    0.1255   -1.9321   -2.7423 H   0  0  0  0  0  0  0  0  0  0  0  0
   -0.7813    0.4800    1.8480 H   0  0  0  0  0  0  0  0  0  0  0  0
   -2.2200    1.4725    1.7339 H   0  0  0  0  0  0  0  0  0  0  0  0
   -2.3265   -0.2495    2.1231 H   0  0  0  0  0  0  0  0  0  0  0  0
    2.0650    1.4895   -2.5941 H   0  0  0  0  0  0  0  0  0  0  0  0
    3.7000    1.8056   -2.0862 H   0  0  0  0  0  0  0  0  0  0  0  0
    3.2276    0.1728   -2.4859 H   0  0  0  0  0  0  0  0  0  0  0  0
    2.2012    2.9689    0.1712 H   0  0  0  0  0  0  0  0  0  0  0  0
    1.1052   -1.1643    1.5966 H   0  0  0  0  0  0  0  0  0  0  0  0
    4.2509    3.2483    1.3428 H   0  0  0  0  0  0  0  0  0  0  0  0
    4.7980   -1.1376    2.2845 H   0  0  0  0  0  0  0  0  0  0  0  0
    5.2922   -2.1971    0.9483 H   0  0  0  0  0  0  0  0  0  0  0  0
    6.3995   -0.9838    1.5700 H   0  0  0  0  0  0  0  0  0  0  0  0
    5.4532    0.5605   -1.6508 H   0  0  0  0  0  0  0  0  0  0  0  0
    6.6737   -0.3050   -0.7586 H   0  0  0  0  0  0  0  0  0  0  0  0
    5.3564   -1.2069   -1.5053 H   0  0  0  0  0  0  0  0  0  0  0  0
   -4.6151    2.0046   -1.9516 H   0  0  0  0  0  0  0  0  0  0  0  0
   -4.9674    0.7172    2.1792 H   0  0  0  0  0  0  0  0  0  0  0  0
   -6.3068    3.5694   -0.4299 H   0  0  0  0  0  0  0  0  0  0  0  0
  1  7  1  0  0  0  0
  1 11  1  0  0  0  0
  2 18  1  0  0  0  0
  2 22  1  0  0  0  0
  3 13  1  0  0  0  0
  3 54  1  0  0  0  0
  4 22  2  0  0  0  0
  5 26  2  0  0  0  0
  6 31  1  0  0  0  0
  6 32  1  0  0  0  0
  7  8  1  0  0  0  0
  7 10  1  0  0  0  0
  7 11  1  0  0  0  0
  8  9  1  0  0  0  0
  8 13  1  0  0  0  0
  8 19  1  0  0  0  0
  9 12  1  0  0  0  0
  9 14  1  0  0  0  0
  9 33  1  0  0  0  0
 10 15  1  0  0  0  0
 10 18  1  0  0  0  0
 10 20  1  0  0  0  0
 11 22  1  0  0  0  0
 11 34  1  0  0  0  0
 12 16  1  0  0  0  0
 12 23  1  0  0  0  0
 12 24  1  0  0  0  0
 13 17  1  0  0  0  0
 13 35  1  0  0  0  0
 14 15  1  0  0  0  0
 14 36  1  0  0  0  0
 14 37  1  0  0  0  0
 15 38  1  0  0  0  0
 15 39  1  0  0  0  0
 16 17  1  0  0  0  0
 16 21  1  0  0  0  0
 16 40  1  0  0  0  0
 17 41  1  0  0  0  0
 17 42  1  0  0  0  0
 18 25  1  0  0  0  0
 18 43  1  0  0  0  0
 19 44  1  0  0  0  0
 19 45  1  0  0  0  0
 19 46  1  0  0  0  0
 20 47  1  0  0  0  0
 20 48  1  0  0  0  0
 20 49  1  0  0  0  0
 21 26  1  0  0  0  0
 21 28  1  0  0  0  0
 21 29  1  0  0  0  0
 23 50  1  0  0  0  0
 23 51  1  0  0  0  0
 23 52  1  0  0  0  0
 24 27  2  0  0  0  0
 24 53  1  0  0  0  0
 25 30  1  0  0  0  0
 25 31  2  0  0  0  0
 26 27  1  0  0  0  0
 27 55  1  0  0  0  0
 28 56  1  0  0  0  0
 28 57  1  0  0  0  0
 28 58  1  0  0  0  0
 29 59  1  0  0  0  0
 29 60  1  0  0  0  0
 29 61  1  0  0  0  0
 30 32  2  0  0  0  0
 30 62  1  0  0  0  0
 31 63  1  0  0  0  0
 32 64  1  0  0  0  0
M  END
> <PUBCHEM_COMPOUND_CID>
3034112

> <PUBCHEM_CONFORMER_RMSD>
0.8

> <PUBCHEM_CONFORMER_DIVERSEORDER>
1

> <PUBCHEM_MMFF94_PARTIAL_CHARGES>
29
1 -0.3
10 0.09
11 0.05
12 0.14
13 0.28
18 0.46
2 -0.43
21 0.06
22 0.72
24 -0.29
25 -0.18
26 0.49
27 -0.14
3 -0.68
30 -0.15
31 -0.01
32 -0.01
34 0.1
4 -0.57
5 -0.57
53 0.15
54 0.4
55 0.15
6 -0.28
62 0.15
63 0.15
64 0.15
7 -0.04
8 0.09

> <PUBCHEM_EFFECTIVE_ROTOR_COUNT>
2.6

> <PUBCHEM_PHARMACOPHORE_FEATURES>
12
1 1 acceptor
1 3 acceptor
1 3 donor
1 4 acceptor
1 5 acceptor
1 6 acceptor
3 21 28 29 hydrophobe
5 6 25 30 31 32 rings
6 12 16 21 24 26 27 rings
6 7 8 9 10 14 15 rings
6 8 9 12 13 16 17 rings
7 1 2 7 10 11 18 22 rings

> <PUBCHEM_HEAVY_ATOM_COUNT>
32

> <PUBCHEM_ATOM_DEF_STEREO_COUNT>
9

> <PUBCHEM_ATOM_UDEF_STEREO_COUNT>
0

> <PUBCHEM_BOND_DEF_STEREO_COUNT>
0

> <PUBCHEM_BOND_UDEF_STEREO_COUNT>
0

> <PUBCHEM_ISOTOPIC_ATOM_COUNT>
0

> <PUBCHEM_COMPONENT_COUNT>
1

> <PUBCHEM_CACTVS_TAUTO_COUNT>
1

> <PUBCHEM_CONFORMER_ID>
002E4C0000000001

> <PUBCHEM_MMFF94_ENERGY>
128.5282

> <PUBCHEM_FEATURE_SELFOVERLAP>
60.945

> <PUBCHEM_SHAPE_FINGERPRINT>
10319926 262 18335989734904907130
10675989 125 17764590920100166945
10863032 1 18409733984386086071
10906281 52 18059587840752804377
10928967 22 13045941356125619697
11045977 3 18341895194988929184
11089746 13 18131626764293583597
11115154 58 17624387051799237063
11405975 8 18335138721595144000
12107183 9 18263636286735349002
12236239 1 17346310475443211389
12403259 118 18338795735971272860
12422481 6 18260544502755580812
12616971 3 16950563302860839852
12633257 1 18334852797132346586
12788726 201 17559677231248308161
12892183 10 18120652689313476430
131258 38 13993453353336655049
13140716 1 18408320008063724902
13224815 77 18188490293489323430
13540713 4 18200050498266792839
13583140 156 18271241741407630707
13726171 33 17978547361033167580
14020679 6 17821736047745072321
14178342 30 18188214316013034519
144659 39 18202284723005185127
14790565 3 17904206176429773556
14950920 106 15647065871464233933
15238133 3 18335147479260463564
16994733 274 16200160829646783369
17980427 23 18342454868030296333
1813 80 16588020238675582550
20511986 3 18200858613585108285
20715895 44 18269273465750572001
21033648 144 18412536600717711589
21033648 29 17968652701708148141
21421861 104 17677605363775469458
21859007 373 17678727930777478853
22122407 14 17132115762003091105
22182313 1 18058193720233311775
23227448 37 18410851079404126727
23522609 53 17458926902310401972
23559900 14 18266758921243950382
2838139 119 18201148867432936381
3117164 225 18408038515822833752
32027 91 17058953073354656382
335352 9 18411981321918330516
34934 24 18411695469874196079
350125 39 18335985290257490164
3633792 109 18267293245762686589
3680242 22 18260827047411140186
3737641 26 12829477100287975753
3862424 121 14058948718673120360
404807 14 15332119316550987350
4073 2 18334295409520373978
4144715 1 18409456907414176050
4340502 62 18340494378858124985
46194498 28 9150878478309852426
5104073 3 18336258029048804778
59755656 215 18340210670318942908
6086070 43 17274528918969026880
7226269 152 18201439138745542033
9981440 41 18343303669680107155

> <PUBCHEM_SHAPE_MULTIPOLES>
623.33
13.07
3.09
1.52
0.54
0.94
0.34
-7.26
-4.29
-2.57
-0.61
0.57
0.03
0.68

> <PUBCHEM_SHAPE_SELFOVERLAP>
1370.624

> <PUBCHEM_SHAPE_VOLUME>
332.7

> <PUBCHEM_COORDINATE_TYPE>
2
5
10

$$$$
