5363734
  -OEChem-09102015523D

 38 39  0     1  0  0  0  0  0999 V2000
   -0.6582    0.5345   -1.4043 O   0  0  0  0  0  0  0  0  0  0  0  0
   -0.2527   -0.0892   -0.1803 C   0  0  1  0  0  0  0  0  0  0  0  0
   -1.2193    1.0719   -0.1913 C   0  0  2  0  0  0  0  0  0  0  0  0
   -0.7314   -1.5098    0.0285 C   0  0  0  0  0  0  0  0  0  0  0  0
   -2.2685   -1.6137   -0.1345 C   0  0  0  0  0  0  0  0  0  0  0  0
   -2.6379    0.8567    0.1483 C   0  0  0  0  0  0  0  0  0  0  0  0
   -3.0227   -0.5224    0.6329 C   0  0  0  0  0  0  0  0  0  0  0  0
   -0.6801    2.4409    0.1031 C   0  0  0  0  0  0  0  0  0  0  0  0
    1.1138    0.1926    0.3039 C   0  0  0  0  0  0  0  0  0  0  0  0
   -0.3204   -1.9647    1.4439 C   0  0  0  0  0  0  0  0  0  0  0  0
   -0.0518   -2.4397   -0.9920 C   0  0  0  0  0  0  0  0  0  0  0  0
   -3.5776    1.8050   -0.0025 C   0  0  0  0  0  0  0  0  0  0  0  0
    2.2386    0.0321   -0.4136 C   0  0  0  0  0  0  0  0  0  0  0  0
    3.5993    0.3010    0.0318 C   0  0  0  0  0  0  0  0  0  0  0  0
    3.8350    0.8121    1.4262 C   0  0  0  0  0  0  0  0  0  0  0  0
    4.6336    0.0927   -0.8002 C   0  0  0  0  0  0  0  0  0  0  0  0
   -2.6185   -2.5987    0.1991 H   0  0  0  0  0  0  0  0  0  0  0  0
   -2.5346   -1.5389   -1.1982 H   0  0  0  0  0  0  0  0  0  0  0  0
   -2.8149   -0.5974    1.7063 H   0  0  0  0  0  0  0  0  0  0  0  0
   -4.0992   -0.6923    0.5078 H   0  0  0  0  0  0  0  0  0  0  0  0
   -0.7424    2.6591    1.1751 H   0  0  0  0  0  0  0  0  0  0  0  0
    0.3637    2.5733   -0.2022 H   0  0  0  0  0  0  0  0  0  0  0  0
   -1.2302    3.2173   -0.4387 H   0  0  0  0  0  0  0  0  0  0  0  0
    1.1789    0.5493    1.3292 H   0  0  0  0  0  0  0  0  0  0  0  0
   -0.6445   -1.2546    2.2129 H   0  0  0  0  0  0  0  0  0  0  0  0
   -0.7679   -2.9368    1.6830 H   0  0  0  0  0  0  0  0  0  0  0  0
    0.7636   -2.0900    1.5482 H   0  0  0  0  0  0  0  0  0  0  0  0
   -0.4382   -3.4618   -0.9034 H   0  0  0  0  0  0  0  0  0  0  0  0
   -0.2331   -2.1052   -2.0197 H   0  0  0  0  0  0  0  0  0  0  0  0
    1.0323   -2.4946   -0.8506 H   0  0  0  0  0  0  0  0  0  0  0  0
   -3.3598    2.7961   -0.3811 H   0  0  0  0  0  0  0  0  0  0  0  0
   -4.6158    1.6036    0.2438 H   0  0  0  0  0  0  0  0  0  0  0  0
    2.1382   -0.3249   -1.4377 H   0  0  0  0  0  0  0  0  0  0  0  0
    3.3282    1.7712    1.5788 H   0  0  0  0  0  0  0  0  0  0  0  0
    4.8996    0.9729    1.6301 H   0  0  0  0  0  0  0  0  0  0  0  0
    3.4682    0.0957    2.1692 H   0  0  0  0  0  0  0  0  0  0  0  0
    5.6553    0.2863   -0.4892 H   0  0  0  0  0  0  0  0  0  0  0  0
    4.4928   -0.2758   -1.8117 H   0  0  0  0  0  0  0  0  0  0  0  0
  1  2  1  0  0  0  0
  1  3  1  0  0  0  0
  2  3  1  0  0  0  0
  2  4  1  0  0  0  0
  2  9  1  0  0  0  0
  3  6  1  0  0  0  0
  3  8  1  0  0  0  0
  4  5  1  0  0  0  0
  4 10  1  0  0  0  0
  4 11  1  0  0  0  0
  5  7  1  0  0  0  0
  5 17  1  0  0  0  0
  5 18  1  0  0  0  0
  6  7  1  0  0  0  0
  6 12  2  0  0  0  0
  7 19  1  0  0  0  0
  7 20  1  0  0  0  0
  8 21  1  0  0  0  0
  8 22  1  0  0  0  0
  8 23  1  0  0  0  0
  9 13  2  0  0  0  0
  9 24  1  0  0  0  0
 10 25  1  0  0  0  0
 10 26  1  0  0  0  0
 10 27  1  0  0  0  0
 11 28  1  0  0  0  0
 11 29  1  0  0  0  0
 11 30  1  0  0  0  0
 12 31  1  0  0  0  0
 12 32  1  0  0  0  0
 13 14  1  0  0  0  0
 13 33  1  0  0  0  0
 14 15  1  0  0  0  0
 14 16  2  0  0  0  0
 15 34  1  0  0  0  0
 15 35  1  0  0  0  0
 15 36  1  0  0  0  0
 16 37  1  0  0  0  0
 16 38  1  0  0  0  0
M  END
> <PUBCHEM_COMPOUND_CID>
5363734

> <PUBCHEM_CONFORMER_RMSD>
0.6

> <PUBCHEM_CONFORMER_DIVERSEORDER>
1
17
15
12
11
7
19
18
2
9
14
16
3
10
13
6
5
8
4

> <PUBCHEM_MMFF94_PARTIAL_CHARGES>
19
1 -0.3
12 -0.3
13 -0.15
14 -0.14
15 0.14
16 -0.3
2 0.09
24 0.15
3 0.09
31 0.15
32 0.15
33 0.15
37 0.15
38 0.15
4 0.09
6 -0.18
7 0.14
8 0.09
9 -0.19

> <PUBCHEM_EFFECTIVE_ROTOR_COUNT>
2.8

> <PUBCHEM_PHARMACOPHORE_FEATURES>
3
1 1 acceptor
3 4 10 11 hydrophobe
7 1 2 3 4 5 6 7 rings

> <PUBCHEM_HEAVY_ATOM_COUNT>
16

> <PUBCHEM_ATOM_DEF_STEREO_COUNT>
0

> <PUBCHEM_ATOM_UDEF_STEREO_COUNT>
2

> <PUBCHEM_BOND_DEF_STEREO_COUNT>
1

> <PUBCHEM_BOND_UDEF_STEREO_COUNT>
0

> <PUBCHEM_ISOTOPIC_ATOM_COUNT>
0

> <PUBCHEM_COMPONENT_COUNT>
1

> <PUBCHEM_CACTVS_TAUTO_COUNT>
1

> <PUBCHEM_CONFORMER_ID>
0051D81600000001

> <PUBCHEM_MMFF94_ENERGY>
39.5105

> <PUBCHEM_FEATURE_SELFOVERLAP>
15.223

> <PUBCHEM_SHAPE_FINGERPRINT>
10922049 32 18342181024719586734
11132069 177 18410292510275201169
12173636 292 18413102849300903028
12403814 3 17313377946186192620
12423570 1 18128274444035941583
13024252 1 18113335344814837039
13140716 1 18337121163020599161
13214271 11 18272083920117573572
13380535 76 18338517435154709535
15219456 202 18270973336021969007
15309172 13 18412832369213382842
15669948 3 18335982081800576422
15775835 57 18334295327493904480
16945 1 18337956808805124919
17846911 113 18410568461855507904
18186145 218 17775006778063579488
200 152 14779536920450389328
20510252 161 18342460360865985256
20524608 308 18271806864693936910
20645476 183 17748836232279714434
20645477 56 18342734139947148824
20871998 184 18341337793896085583
21501502 16 18338230445187198883
21524375 3 18266736879265583920
22182313 1 18267324061941739983
22344851 341 18190467051966222667
23402539 116 18341887485543790756
23419403 2 14762350557334327911
23526113 38 17487908808942142254
23557571 272 18272101520930320070
23559900 14 18343023268771651060
2748010 2 18193293905330704463
4175511 318 17895186688697793389
43471831 8 18260263018999518994
5706482 22 18409721842407863459
6333449 129 18342174487800376758
69090 78 18201997758975945566
7364860 26 17909829834153608551
77492 1 17530964713428003916
81228 2 18121766485823293298
90316 7 17822280271773315236

> <PUBCHEM_SHAPE_MULTIPOLES>
323.4
6.49
2.33
1.12
6.74
0.39
-0.17
-2.34
-0.37
-1.68
0
0.52
0.26
0.39

> <PUBCHEM_SHAPE_SELFOVERLAP>
666.956

> <PUBCHEM_SHAPE_VOLUME>
187.6

> <PUBCHEM_COORDINATE_TYPE>
2
5
10

$$$$
