44259006
  -OEChem-09102013542D

 82 87  0     1  0  0  0  0  0999 V2000
    9.4651    0.2143    0.0000 O   0  0  0  0  0  0  0  0  0  0  0  0
   11.1972   -1.7857    0.0000 O   0  0  0  0  0  0  0  0  0  0  0  0
   11.1972    0.2143    0.0000 O   0  0  0  0  0  0  0  0  0  0  0  0
    9.4651   -2.7857    0.0000 O   0  0  0  0  0  0  0  0  0  0  0  0
    7.7331   -1.7857    0.0000 O   0  0  0  0  0  0  0  0  0  0  0  0
    6.8671   -0.2857    0.0000 O   0  0  0  0  0  0  0  0  0  0  0  0
   12.0632    2.7143    0.0000 O   0  0  0  0  0  0  0  0  0  0  0  0
   10.3312   -3.2857    0.0000 O   0  0  0  0  0  0  0  0  0  0  0  0
    9.4651    1.2143    0.0000 O   0  0  0  0  0  0  0  0  0  0  0  0
    6.0010    1.2143    0.0000 O   0  0  0  0  0  0  0  0  0  0  0  0
    8.5610    2.7112    0.0000 O   0  0  0  0  0  0  0  0  0  0  0  0
   14.6613   -2.7857    0.0000 O   0  0  0  0  0  0  0  0  0  0  0  0
   12.9292   -5.7857    0.0000 O   0  0  0  0  0  0  0  0  0  0  0  0
   10.3191    5.7836    0.0000 O   0  0  0  0  0  0  0  0  0  0  0  0
   14.6613   -4.7857    0.0000 O   0  0  0  0  0  0  0  0  0  0  0  0
   15.5273   -0.2857    0.0000 O   0  0  0  0  0  0  0  0  0  0  0  0
    4.2690   -2.7857    0.0000 O   0  0  0  0  0  0  0  0  0  0  0  0
    2.5369    0.2143    0.0000 O   0  0  0  0  0  0  0  0  0  0  0  0
    2.5369   -1.7857    0.0000 O   0  0  0  0  0  0  0  0  0  0  0  0
    9.4651   -1.7857    0.0000 C   0  0  1  0  0  0  0  0  0  0  0  0
    8.5991   -1.2857    0.0000 C   0  0  1  0  0  0  0  0  0  0  0  0
   10.3312   -1.2857    0.0000 C   0  0  3  0  0  0  0  0  0  0  0  0
    8.5991   -0.2857    0.0000 C   0  0  3  0  0  0  0  0  0  0  0  0
   10.3312   -0.2857    0.0000 C   0  0  1  0  0  0  0  0  0  0  0  0
    7.7331    0.2143    0.0000 C   0  0  0  0  0  0  0  0  0  0  0  0
   11.1972    1.2143    0.0000 C   0  0  0  0  0  0  0  0  0  0  0  0
   11.1972   -2.7857    0.0000 C   0  0  0  0  0  0  0  0  0  0  0  0
   12.0632    1.7143    0.0000 C   0  0  0  0  0  0  0  0  0  0  0  0
   10.3312    1.7143    0.0000 C   0  0  0  0  0  0  0  0  0  0  0  0
   12.0632   -3.2857    0.0000 C   0  0  0  0  0  0  0  0  0  0  0  0
    6.0010    0.2143    0.0000 C   0  0  0  0  0  0  0  0  0  0  0  0
   10.3312    2.7143    0.0000 C   0  0  0  0  0  0  0  0  0  0  0  0
   11.1972    3.2143    0.0000 C   0  0  0  0  0  0  0  0  0  0  0  0
   12.9292    1.2143    0.0000 C   0  0  0  0  0  0  0  0  0  0  0  0
    5.1350   -0.2857    0.0000 C   0  0  0  0  0  0  0  0  0  0  0  0
   12.0632   -4.2857    0.0000 C   0  0  0  0  0  0  0  0  0  0  0  0
   12.9292   -2.7857    0.0000 C   0  0  0  0  0  0  0  0  0  0  0  0
    9.4212    3.2212    0.0000 C   0  0  0  0  0  0  0  0  0  0  0  0
   11.2132    4.2558    0.0000 C   0  0  0  0  0  0  0  0  0  0  0  0
   12.9292    0.2143    0.0000 C   0  0  0  0  0  0  0  0  0  0  0  0
   13.7953    1.7143    0.0000 C   0  0  0  0  0  0  0  0  0  0  0  0
    9.4131    4.2628    0.0000 C   0  0  0  0  0  0  0  0  0  0  0  0
   13.7953   -3.2857    0.0000 C   0  0  0  0  0  0  0  0  0  0  0  0
   12.9292   -4.7857    0.0000 C   0  0  0  0  0  0  0  0  0  0  0  0
   10.3152    4.7836    0.0000 C   0  0  0  0  0  0  0  0  0  0  0  0
    4.2690    0.2143    0.0000 C   0  0  0  0  0  0  0  0  0  0  0  0
    5.1350   -1.2857    0.0000 C   0  0  0  0  0  0  0  0  0  0  0  0
   13.7953   -4.2857    0.0000 C   0  0  0  0  0  0  0  0  0  0  0  0
   13.7953   -0.2857    0.0000 C   0  0  0  0  0  0  0  0  0  0  0  0
   14.6613    1.2143    0.0000 C   0  0  0  0  0  0  0  0  0  0  0  0
   14.6613    0.2143    0.0000 C   0  0  0  0  0  0  0  0  0  0  0  0
    4.2690   -1.7857    0.0000 C   0  0  0  0  0  0  0  0  0  0  0  0
    3.4030   -0.2857    0.0000 C   0  0  0  0  0  0  0  0  0  0  0  0
    3.4030   -1.2857    0.0000 C   0  0  0  0  0  0  0  0  0  0  0  0
    8.9282   -2.0957    0.0000 H   0  0  0  0  0  0  0  0  0  0  0  0
    8.5991   -1.9057    0.0000 H   0  0  0  0  0  0  0  0  0  0  0  0
   10.3312   -1.9057    0.0000 H   0  0  0  0  0  0  0  0  0  0  0  0
    8.5991    0.3343    0.0000 H   0  0  0  0  0  0  0  0  0  0  0  0
   10.3312    0.3343    0.0000 H   0  0  0  0  0  0  0  0  0  0  0  0
    8.1316    0.6893    0.0000 H   0  0  0  0  0  0  0  0  0  0  0  0
    7.3346    0.6893    0.0000 H   0  0  0  0  0  0  0  0  0  0  0  0
    8.9282   -3.0957    0.0000 H   0  0  0  0  0  0  0  0  0  0  0  0
    7.7331   -2.4057    0.0000 H   0  0  0  0  0  0  0  0  0  0  0  0
   11.5263   -4.5957    0.0000 H   0  0  0  0  0  0  0  0  0  0  0  0
   12.9292   -2.1657    0.0000 H   0  0  0  0  0  0  0  0  0  0  0  0
   11.7537    4.5596    0.0000 H   0  0  0  0  0  0  0  0  0  0  0  0
   12.3923   -0.0957    0.0000 H   0  0  0  0  0  0  0  0  0  0  0  0
   13.7953    2.3343    0.0000 H   0  0  0  0  0  0  0  0  0  0  0  0
    8.8750    4.5707    0.0000 H   0  0  0  0  0  0  0  0  0  0  0  0
    4.2690    0.8343    0.0000 H   0  0  0  0  0  0  0  0  0  0  0  0
    5.6720   -1.5957    0.0000 H   0  0  0  0  0  0  0  0  0  0  0  0
   13.7953   -0.9057    0.0000 H   0  0  0  0  0  0  0  0  0  0  0  0
   15.1982    1.5243    0.0000 H   0  0  0  0  0  0  0  0  0  0  0  0
    8.0205    3.0150    0.0000 H   0  0  0  0  0  0  0  0  0  0  0  0
   15.1982   -3.0957    0.0000 H   0  0  0  0  0  0  0  0  0  0  0  0
   12.3923   -6.0957    0.0000 H   0  0  0  0  0  0  0  0  0  0  0  0
    9.7833    6.0957    0.0000 H   0  0  0  0  0  0  0  0  0  0  0  0
   14.6613   -5.4057    0.0000 H   0  0  0  0  0  0  0  0  0  0  0  0
   15.5273   -0.9057    0.0000 H   0  0  0  0  0  0  0  0  0  0  0  0
    3.7320   -3.0957    0.0000 H   0  0  0  0  0  0  0  0  0  0  0  0
    2.5369    0.8343    0.0000 H   0  0  0  0  0  0  0  0  0  0  0  0
    2.0000   -1.4757    0.0000 H   0  0  0  0  0  0  0  0  0  0  0  0
  1 23  1  0  0  0  0
  1 24  1  0  0  0  0
  2 22  1  0  0  0  0
  2 27  1  0  0  0  0
 24  3  1  1  0  0  0
  3 26  1  0  0  0  0
 20  4  1  1  0  0  0
  4 62  1  0  0  0  0
 21  5  1  6  0  0  0
  5 63  1  0  0  0  0
  6 25  1  0  0  0  0
  6 31  1  0  0  0  0
  7 28  1  0  0  0  0
  7 33  1  0  0  0  0
  8 27  2  0  0  0  0
  9 29  2  0  0  0  0
 10 31  2  0  0  0  0
 11 38  1  0  0  0  0
 11 74  1  0  0  0  0
 12 43  1  0  0  0  0
 12 75  1  0  0  0  0
 13 44  1  0  0  0  0
 13 76  1  0  0  0  0
 14 45  1  0  0  0  0
 14 77  1  0  0  0  0
 15 48  1  0  0  0  0
 15 78  1  0  0  0  0
 16 51  1  0  0  0  0
 16 79  1  0  0  0  0
 17 52  1  0  0  0  0
 17 80  1  0  0  0  0
 18 53  1  0  0  0  0
 18 81  1  0  0  0  0
 19 54  1  0  0  0  0
 19 82  1  0  0  0  0
 20 21  1  0  0  0  0
 20 22  1  0  0  0  0
 20 55  1  0  0  0  0
 21 23  1  0  0  0  0
 21 56  1  0  0  0  0
 22 24  1  0  0  0  0
 22 57  1  0  0  0  0
 23 25  1  0  0  0  0
 23 58  1  0  0  0  0
 24 59  1  0  0  0  0
 25 60  1  0  0  0  0
 25 61  1  0  0  0  0
 26 28  2  0  0  0  0
 26 29  1  0  0  0  0
 27 30  1  0  0  0  0
 28 34  1  0  0  0  0
 29 32  1  0  0  0  0
 30 36  2  0  0  0  0
 30 37  1  0  0  0  0
 31 35  1  0  0  0  0
 32 33  1  0  0  0  0
 32 38  2  0  0  0  0
 33 39  2  0  0  0  0
 34 40  2  0  0  0  0
 34 41  1  0  0  0  0
 35 46  2  0  0  0  0
 35 47  1  0  0  0  0
 36 44  1  0  0  0  0
 36 64  1  0  0  0  0
 37 43  2  0  0  0  0
 37 65  1  0  0  0  0
 38 42  1  0  0  0  0
 39 45  1  0  0  0  0
 39 66  1  0  0  0  0
 40 49  1  0  0  0  0
 40 67  1  0  0  0  0
 41 50  2  0  0  0  0
 41 68  1  0  0  0  0
 42 45  2  0  0  0  0
 42 69  1  0  0  0  0
 43 48  1  0  0  0  0
 44 48  2  0  0  0  0
 46 53  1  0  0  0  0
 46 70  1  0  0  0  0
 47 52  2  0  0  0  0
 47 71  1  0  0  0  0
 49 51  2  0  0  0  0
 49 72  1  0  0  0  0
 50 51  1  0  0  0  0
 50 73  1  0  0  0  0
 52 54  1  0  0  0  0
 53 54  2  0  0  0  0
M  END
> <PUBCHEM_COMPOUND_CID>
44259006

> <PUBCHEM_COMPOUND_CANONICALIZED>
1

> <PUBCHEM_CACTVS_COMPLEXITY>
1360

> <PUBCHEM_CACTVS_HBOND_ACCEPTOR>
19

> <PUBCHEM_CACTVS_HBOND_DONOR>
11

> <PUBCHEM_CACTVS_ROTATABLE_BOND>
10

> <PUBCHEM_CACTVS_SUBSKEYS>
AAADceB8PgAAAAAAAAAAAAAAAAAAAAAAAAA0YMGCAAAAAACBVAAAGgAACAAADBSwmAMwDoAABgCIAqDSCAICCAAkIAAIiAFGiMgdNzaGNR6ieWGl4BUPuYfK7LzOIAABCAAIQABAAAIQABCAAAAAAAAAAA==

> <PUBCHEM_IUPAC_OPENEYE_NAME>
[(3S,4S,6S)-6-[5,7-dihydroxy-2-(4-hydroxyphenyl)-4-oxo-chromen-3-yl]oxy-3,4-dihydroxy-5-(3,4,5-trihydroxybenzoyl)oxy-tetrahydropyran-2-yl]methyl 3,4,5-trihydroxybenzoate

> <PUBCHEM_IUPAC_CAS_NAME>
3,4,5-trihydroxybenzoic acid [(3S,4S,6S)-6-[[5,7-dihydroxy-2-(4-hydroxyphenyl)-4-oxo-1-benzopyran-3-yl]oxy]-3,4-dihydroxy-5-[oxo-(3,4,5-trihydroxyphenyl)methoxy]-2-oxanyl]methyl ester

> <PUBCHEM_IUPAC_NAME_MARKUP>
[(3<I>S</I>,4<I>S</I>,6<I>S</I>)-6-[5,7-dihydroxy-2-(4-hydroxyphenyl)-4-oxochromen-3-yl]oxy-3,4-dihydroxy-5-(3,4,5-trihydroxybenzoyl)oxyoxan-2-yl]methyl 3,4,5-trihydroxybenzoate

> <PUBCHEM_IUPAC_NAME>
[(3S,4S,6S)-6-[5,7-dihydroxy-2-(4-hydroxyphenyl)-4-oxochromen-3-yl]oxy-3,4-dihydroxy-5-(3,4,5-trihydroxybenzoyl)oxyoxan-2-yl]methyl 3,4,5-trihydroxybenzoate

> <PUBCHEM_IUPAC_SYSTEMATIC_NAME>
[(3S,4S,6S)-6-[2-(4-hydroxyphenyl)-5,7-bis(oxidanyl)-4-oxidanylidene-chromen-3-yl]oxy-3,4-bis(oxidanyl)-5-[3,4,5-tris(oxidanyl)phenyl]carbonyloxy-oxan-2-yl]methyl 3,4,5-tris(oxidanyl)benzoate

> <PUBCHEM_IUPAC_TRADITIONAL_NAME>
3,4,5-trihydroxybenzoic acid [(3S,4S,6S)-6-[5,7-dihydroxy-2-(4-hydroxyphenyl)-4-keto-chromen-3-yl]oxy-5-galloyloxy-3,4-dihydroxy-tetrahydropyran-2-yl]methyl ester

> <PUBCHEM_IUPAC_INCHI>
InChI=1S/C35H28O19/c36-15-3-1-12(2-4-15)30-31(28(46)24-17(38)9-16(37)10-22(24)51-30)54-35-32(53-34(49)14-7-20(41)26(44)21(42)8-14)29(47)27(45)23(52-35)11-50-33(48)13-5-18(39)25(43)19(40)6-13/h1-10,23,27,29,32,35-45,47H,11H2/t23?,27-,29+,32?,35+/m1/s1

> <PUBCHEM_IUPAC_INCHIKEY>
GAWOMYRLBFCSGL-DVOXQHAUSA-N

> <PUBCHEM_XLOGP3_AA>
2.5

> <PUBCHEM_EXACT_MASS>
752.122479

> <PUBCHEM_MOLECULAR_FORMULA>
C35H28O19

> <PUBCHEM_MOLECULAR_WEIGHT>
752.6

> <PUBCHEM_OPENEYE_CAN_SMILES>
C1=CC(=CC=C1C2=C(C(=O)C3=C(C=C(C=C3O2)O)O)OC4C(C(C(C(O4)COC(=O)C5=CC(=C(C(=C5)O)O)O)O)O)OC(=O)C6=CC(=C(C(=C6)O)O)O)O

> <PUBCHEM_OPENEYE_ISO_SMILES>
C1=CC(=CC=C1C2=C(C(=O)C3=C(C=C(C=C3O2)O)O)O[C@H]4C([C@H]([C@@H](C(O4)COC(=O)C5=CC(=C(C(=C5)O)O)O)O)O)OC(=O)C6=CC(=C(C(=C6)O)O)O)O

> <PUBCHEM_CACTVS_TPSA>
320

> <PUBCHEM_MONOISOTOPIC_WEIGHT>
752.122479

> <PUBCHEM_TOTAL_CHARGE>
0

> <PUBCHEM_HEAVY_ATOM_COUNT>
54

> <PUBCHEM_ATOM_DEF_STEREO_COUNT>
3

> <PUBCHEM_ATOM_UDEF_STEREO_COUNT>
2

> <PUBCHEM_BOND_DEF_STEREO_COUNT>
0

> <PUBCHEM_BOND_UDEF_STEREO_COUNT>
0

> <PUBCHEM_ISOTOPIC_ATOM_COUNT>
0

> <PUBCHEM_COMPONENT_COUNT>
1

> <PUBCHEM_CACTVS_TAUTO_COUNT>
-1

> <PUBCHEM_COORDINATE_TYPE>
1
5
255

> <PUBCHEM_BONDANNOTATIONS>
22  2  3
23  25  3
26  28  8
26  29  8
29  32  8
24  3  5
30  36  8
30  37  8
32  33  8
32  38  8
33  39  8
34  40  8
34  41  8
35  46  8
35  47  8
36  44  8
37  43  8
38  42  8
39  45  8
20  4  5
40  49  8
41  50  8
42  45  8
43  48  8
44  48  8
46  53  8
47  52  8
49  51  8
21  5  6
50  51  8
52  54  8
53  54  8
7  28  8
7  33  8

$$$$
