5367459
  -OEChem-09102016022D

 61 60  0     0  0  0  0  0  0999 V2000
    5.1350    1.0000    0.0000 O   0  0  0  0  0  0  0  0  0  0  0  0
    6.0010   -0.5000    0.0000 O   0  0  0  0  0  0  0  0  0  0  0  0
    2.5369    0.5000    0.0000 O   0  0  0  0  0  0  0  0  0  0  0  0
    3.4030   -1.0000    0.0000 O   0  0  0  0  0  0  0  0  0  0  0  0
    9.4651    0.5000    0.0000 C   0  0  0  0  0  0  0  0  0  0  0  0
    8.5991    1.0000    0.0000 C   0  0  0  0  0  0  0  0  0  0  0  0
   10.3312    1.0000    0.0000 C   0  0  0  0  0  0  0  0  0  0  0  0
    7.7331    0.5000    0.0000 C   0  0  0  0  0  0  0  0  0  0  0  0
   11.1972    0.5000    0.0000 C   0  0  0  0  0  0  0  0  0  0  0  0
    6.8671    1.0000    0.0000 C   0  0  0  0  0  0  0  0  0  0  0  0
   12.0632    1.0000    0.0000 C   0  0  0  0  0  0  0  0  0  0  0  0
    6.0010    0.5000    0.0000 C   0  0  0  0  0  0  0  0  0  0  0  0
   12.9292    0.5000    0.0000 C   0  0  0  0  0  0  0  0  0  0  0  0
    4.2690    0.5000    0.0000 C   0  0  0  0  0  0  0  0  0  0  0  0
   13.7953    1.0000    0.0000 C   0  0  0  0  0  0  0  0  0  0  0  0
    3.4030    1.0000    0.0000 C   0  0  0  0  0  0  0  0  0  0  0  0
    4.2690   -0.5000    0.0000 C   0  0  0  0  0  0  0  0  0  0  0  0
   14.6613    0.5000    0.0000 C   0  0  0  0  0  0  0  0  0  0  0  0
   15.5273    1.0000    0.0000 C   0  0  0  0  0  0  0  0  0  0  0  0
   16.3933    0.5000    0.0000 C   0  0  0  0  0  0  0  0  0  0  0  0
   17.2594    1.0000    0.0000 C   0  0  0  0  0  0  0  0  0  0  0  0
   18.1254    0.5000    0.0000 C   0  0  0  0  0  0  0  0  0  0  0  0
   18.9914    1.0000    0.0000 C   0  0  0  0  0  0  0  0  0  0  0  0
   19.8574    0.5000    0.0000 C   0  0  0  0  0  0  0  0  0  0  0  0
   20.7235    1.0000    0.0000 C   0  0  0  0  0  0  0  0  0  0  0  0
    9.0666    0.0251    0.0000 H   0  0  0  0  0  0  0  0  0  0  0  0
    9.8637    0.0251    0.0000 H   0  0  0  0  0  0  0  0  0  0  0  0
    8.9976    1.4750    0.0000 H   0  0  0  0  0  0  0  0  0  0  0  0
    8.2006    1.4750    0.0000 H   0  0  0  0  0  0  0  0  0  0  0  0
   10.7297    1.4750    0.0000 H   0  0  0  0  0  0  0  0  0  0  0  0
    9.9326    1.4750    0.0000 H   0  0  0  0  0  0  0  0  0  0  0  0
    7.3346    0.0251    0.0000 H   0  0  0  0  0  0  0  0  0  0  0  0
    8.1316    0.0251    0.0000 H   0  0  0  0  0  0  0  0  0  0  0  0
   10.7987    0.0251    0.0000 H   0  0  0  0  0  0  0  0  0  0  0  0
   11.5957    0.0251    0.0000 H   0  0  0  0  0  0  0  0  0  0  0  0
    7.2656    1.4750    0.0000 H   0  0  0  0  0  0  0  0  0  0  0  0
    6.4685    1.4750    0.0000 H   0  0  0  0  0  0  0  0  0  0  0  0
   12.4617    1.4750    0.0000 H   0  0  0  0  0  0  0  0  0  0  0  0
   11.6647    1.4750    0.0000 H   0  0  0  0  0  0  0  0  0  0  0  0
   12.9292   -0.1200    0.0000 H   0  0  0  0  0  0  0  0  0  0  0  0
    4.2690    1.1200    0.0000 H   0  0  0  0  0  0  0  0  0  0  0  0
   13.7953    1.6200    0.0000 H   0  0  0  0  0  0  0  0  0  0  0  0
    3.8015    1.4750    0.0000 H   0  0  0  0  0  0  0  0  0  0  0  0
    3.0044    1.4750    0.0000 H   0  0  0  0  0  0  0  0  0  0  0  0
    4.4810   -1.0826    0.0000 H   0  0  0  0  0  0  0  0  0  0  0  0
    4.8796   -0.3923    0.0000 H   0  0  0  0  0  0  0  0  0  0  0  0
   14.2628    0.0251    0.0000 H   0  0  0  0  0  0  0  0  0  0  0  0
   15.0598    0.0251    0.0000 H   0  0  0  0  0  0  0  0  0  0  0  0
   15.5273    1.6200    0.0000 H   0  0  0  0  0  0  0  0  0  0  0  0
   16.3933   -0.1200    0.0000 H   0  0  0  0  0  0  0  0  0  0  0  0
    2.0000    0.8100    0.0000 H   0  0  0  0  0  0  0  0  0  0  0  0
    3.4030   -1.6200    0.0000 H   0  0  0  0  0  0  0  0  0  0  0  0
   17.6579    1.4750    0.0000 H   0  0  0  0  0  0  0  0  0  0  0  0
   16.8608    1.4750    0.0000 H   0  0  0  0  0  0  0  0  0  0  0  0
   18.1254   -0.1200    0.0000 H   0  0  0  0  0  0  0  0  0  0  0  0
   18.9914    1.6200    0.0000 H   0  0  0  0  0  0  0  0  0  0  0  0
   19.4589    0.0251    0.0000 H   0  0  0  0  0  0  0  0  0  0  0  0
   20.2560    0.0251    0.0000 H   0  0  0  0  0  0  0  0  0  0  0  0
   21.0335    0.4631    0.0000 H   0  0  0  0  0  0  0  0  0  0  0  0
   21.2604    1.3100    0.0000 H   0  0  0  0  0  0  0  0  0  0  0  0
   20.4135    1.5369    0.0000 H   0  0  0  0  0  0  0  0  0  0  0  0
  1 12  1  0  0  0  0
  1 14  1  0  0  0  0
  2 12  2  0  0  0  0
  3 16  1  0  0  0  0
  3 51  1  0  0  0  0
  4 17  1  0  0  0  0
  4 52  1  0  0  0  0
  5  6  1  0  0  0  0
  5  7  1  0  0  0  0
  5 26  1  0  0  0  0
  5 27  1  0  0  0  0
  6  8  1  0  0  0  0
  6 28  1  0  0  0  0
  6 29  1  0  0  0  0
  7  9  1  0  0  0  0
  7 30  1  0  0  0  0
  7 31  1  0  0  0  0
  8 10  1  0  0  0  0
  8 32  1  0  0  0  0
  8 33  1  0  0  0  0
  9 11  1  0  0  0  0
  9 34  1  0  0  0  0
  9 35  1  0  0  0  0
 10 12  1  0  0  0  0
 10 36  1  0  0  0  0
 10 37  1  0  0  0  0
 11 13  1  0  0  0  0
 11 38  1  0  0  0  0
 11 39  1  0  0  0  0
 13 15  2  0  0  0  0
 13 40  1  0  0  0  0
 14 16  1  0  0  0  0
 14 17  1  0  0  0  0
 14 41  1  0  0  0  0
 15 18  1  0  0  0  0
 15 42  1  0  0  0  0
 16 43  1  0  0  0  0
 16 44  1  0  0  0  0
 17 45  1  0  0  0  0
 17 46  1  0  0  0  0
 18 19  1  0  0  0  0
 18 47  1  0  0  0  0
 18 48  1  0  0  0  0
 19 20  2  0  0  0  0
 19 49  1  0  0  0  0
 20 21  1  0  0  0  0
 20 50  1  0  0  0  0
 21 22  1  0  0  0  0
 21 53  1  0  0  0  0
 21 54  1  0  0  0  0
 22 23  2  0  0  0  0
 22 55  1  0  0  0  0
 23 24  1  0  0  0  0
 23 56  1  0  0  0  0
 24 25  1  0  0  0  0
 24 57  1  0  0  0  0
 24 58  1  0  0  0  0
 25 59  1  0  0  0  0
 25 60  1  0  0  0  0
 25 61  1  0  0  0  0
M  END
> <PUBCHEM_COMPOUND_CID>
5367459

> <PUBCHEM_COMPOUND_CANONICALIZED>
1

> <PUBCHEM_CACTVS_COMPLEXITY>
381

> <PUBCHEM_CACTVS_HBOND_ACCEPTOR>
4

> <PUBCHEM_CACTVS_HBOND_DONOR>
2

> <PUBCHEM_CACTVS_ROTATABLE_BOND>
17

> <PUBCHEM_CACTVS_SUBSKEYS>
AAADcfB4OAAAAAAAAAAAAAAAAAAAAAAAAAAAAAAAAAAAAAAAAAAAGgAACAAACBSggAICCAAABgCIACDSCAAAAAAgAAAICAEAAAgBEBIAAQACQAAFgAALAAOIyKCAAAAAAAAAAAAAAAAAAAAAAAAAAAAAAA==

> <PUBCHEM_IUPAC_OPENEYE_NAME>
[2-hydroxy-1-(hydroxymethyl)ethyl] (9E,12E,15E)-octadeca-9,12,15-trienoate

> <PUBCHEM_IUPAC_CAS_NAME>
(9E,12E,15E)-octadeca-9,12,15-trienoic acid 1,3-dihydroxypropan-2-yl ester

> <PUBCHEM_IUPAC_NAME_MARKUP>
1,3-dihydroxypropan-2-yl (9<I>E</I>,12<I>E</I>,15<I>E</I>)-octadeca-9,12,15-trienoate

> <PUBCHEM_IUPAC_NAME>
1,3-dihydroxypropan-2-yl (9E,12E,15E)-octadeca-9,12,15-trienoate

> <PUBCHEM_IUPAC_SYSTEMATIC_NAME>
1,3-bis(oxidanyl)propan-2-yl (9E,12E,15E)-octadeca-9,12,15-trienoate

> <PUBCHEM_IUPAC_TRADITIONAL_NAME>
(9E,12E,15E)-octadeca-9,12,15-trienoic acid (2-hydroxy-1-methylol-ethyl) ester

> <PUBCHEM_IUPAC_INCHI>
InChI=1S/C21H36O4/c1-2-3-4-5-6-7-8-9-10-11-12-13-14-15-16-17-21(24)25-20(18-22)19-23/h3-4,6-7,9-10,20,22-23H,2,5,8,11-19H2,1H3/b4-3+,7-6+,10-9+

> <PUBCHEM_IUPAC_INCHIKEY>
ZCCLDKGWJIREQF-IUQGRGSQSA-N

> <PUBCHEM_XLOGP3_AA>
4.9

> <PUBCHEM_EXACT_MASS>
352.26136

> <PUBCHEM_MOLECULAR_FORMULA>
C21H36O4

> <PUBCHEM_MOLECULAR_WEIGHT>
352.5

> <PUBCHEM_OPENEYE_CAN_SMILES>
CCC=CCC=CCC=CCCCCCCCC(=O)OC(CO)CO

> <PUBCHEM_OPENEYE_ISO_SMILES>
CC/C=C/C/C=C/C/C=C/CCCCCCCC(=O)OC(CO)CO

> <PUBCHEM_CACTVS_TPSA>
66.8

> <PUBCHEM_MONOISOTOPIC_WEIGHT>
352.26136

> <PUBCHEM_TOTAL_CHARGE>
0

> <PUBCHEM_HEAVY_ATOM_COUNT>
25

> <PUBCHEM_ATOM_DEF_STEREO_COUNT>
0

> <PUBCHEM_ATOM_UDEF_STEREO_COUNT>
0

> <PUBCHEM_BOND_DEF_STEREO_COUNT>
3

> <PUBCHEM_BOND_UDEF_STEREO_COUNT>
0

> <PUBCHEM_ISOTOPIC_ATOM_COUNT>
0

> <PUBCHEM_COMPONENT_COUNT>
1

> <PUBCHEM_CACTVS_TAUTO_COUNT>
-1

> <PUBCHEM_COORDINATE_TYPE>
1
5
255

$$$$
