70682800
  -OEChem-08252012383D

 32 32  0     0  0  0  0  0  0999 V2000
    1.1197    2.1503   -0.6057 O   0  0  0  0  0  0  0  0  0  0  0  0
   -2.3115   -2.1128    0.0857 O   0  0  0  0  0  0  0  0  0  0  0  0
   -3.1568    0.4779    0.6311 O   0  0  0  0  0  0  0  0  0  0  0  0
    4.3347   -0.4043    1.6036 O   0  0  0  0  0  0  0  0  0  0  0  0
    0.7098   -0.2156   -0.7133 C   0  0  0  0  0  0  0  0  0  0  0  0
    0.2849    1.0847   -0.4404 C   0  0  0  0  0  0  0  0  0  0  0  0
   -1.4654   -1.0584   -0.0841 C   0  0  0  0  0  0  0  0  0  0  0  0
   -0.1652   -1.2871   -0.5349 C   0  0  0  0  0  0  0  0  0  0  0  0
   -1.8903    0.2420    0.1889 C   0  0  0  0  0  0  0  0  0  0  0  0
   -1.0151    1.3135    0.0107 C   0  0  0  0  0  0  0  0  0  0  0  0
    2.0617   -0.4800   -1.1872 C   0  0  0  0  0  0  0  0  0  0  0  0
    3.1322   -0.7524   -0.4090 C   0  0  0  0  0  0  0  0  0  0  0  0
    3.0806   -0.8229    1.0835 C   0  0  0  0  0  0  0  0  0  0  0  0
    0.5915    3.4388   -0.3001 C   0  0  0  0  0  0  0  0  0  0  0  0
   -1.7992   -3.4093   -0.2156 C   0  0  0  0  0  0  0  0  0  0  0  0
   -3.5116    1.8356    0.8868 C   0  0  0  0  0  0  0  0  0  0  0  0
    0.2171   -2.2772   -0.7631 H   0  0  0  0  0  0  0  0  0  0  0  0
   -1.3479    2.3172    0.2233 H   0  0  0  0  0  0  0  0  0  0  0  0
    2.1895   -0.4608   -2.2666 H   0  0  0  0  0  0  0  0  0  0  0  0
    4.0816   -0.9616   -0.8958 H   0  0  0  0  0  0  0  0  0  0  0  0
    2.3057   -0.1837    1.5153 H   0  0  0  0  0  0  0  0  0  0  0  0
    2.9150   -1.8580    1.3980 H   0  0  0  0  0  0  0  0  0  0  0  0
    1.3911    4.1632   -0.4889 H   0  0  0  0  0  0  0  0  0  0  0  0
    0.3323    3.5319    0.7603 H   0  0  0  0  0  0  0  0  0  0  0  0
   -0.2357    3.7087   -0.9658 H   0  0  0  0  0  0  0  0  0  0  0  0
   -2.6046   -4.1260   -0.0239 H   0  0  0  0  0  0  0  0  0  0  0  0
   -0.9699   -3.6801    0.4469 H   0  0  0  0  0  0  0  0  0  0  0  0
   -1.5365   -3.5038   -1.2748 H   0  0  0  0  0  0  0  0  0  0  0  0
   -4.5519    1.8346    1.2295 H   0  0  0  0  0  0  0  0  0  0  0  0
   -3.4832    2.4415   -0.0255 H   0  0  0  0  0  0  0  0  0  0  0  0
   -2.9150    2.2652    1.6989 H   0  0  0  0  0  0  0  0  0  0  0  0
    4.2846   -0.4861    2.5713 H   0  0  0  0  0  0  0  0  0  0  0  0
  1  6  1  0  0  0  0
  1 14  1  0  0  0  0
  2  7  1  0  0  0  0
  2 15  1  0  0  0  0
  3  9  1  0  0  0  0
  3 16  1  0  0  0  0
  4 13  1  0  0  0  0
  4 32  1  0  0  0  0
  5  6  1  0  0  0  0
  5  8  2  0  0  0  0
  5 11  1  0  0  0  0
  6 10  2  0  0  0  0
  7  8  1  0  0  0  0
  7  9  2  0  0  0  0
  8 17  1  0  0  0  0
  9 10  1  0  0  0  0
 10 18  1  0  0  0  0
 11 12  2  0  0  0  0
 11 19  1  0  0  0  0
 12 13  1  0  0  0  0
 12 20  1  0  0  0  0
 13 21  1  0  0  0  0
 13 22  1  0  0  0  0
 14 23  1  0  0  0  0
 14 24  1  0  0  0  0
 14 25  1  0  0  0  0
 15 26  1  0  0  0  0
 15 27  1  0  0  0  0
 15 28  1  0  0  0  0
 16 29  1  0  0  0  0
 16 30  1  0  0  0  0
 16 31  1  0  0  0  0
M  END
> <PUBCHEM_COMPOUND_CID>
70682800

> <PUBCHEM_CONFORMER_RMSD>
0.6

> <PUBCHEM_CONFORMER_DIVERSEORDER>
7
35
39
44
31
45
24
18
47
36
48
41
29
43
30
14
23
20
13
25
2
42
17
27
6
37
21
46
28
15
4
26
32
19
1
38
34
10
12
3
5
22
49
16
8
33
40
11
9

> <PUBCHEM_MMFF94_PARTIAL_CHARGES>
21
1 -0.36
10 -0.15
11 -0.18
12 -0.29
13 0.42
14 0.28
15 0.28
16 0.28
17 0.15
18 0.15
19 0.15
2 -0.36
20 0.15
3 -0.36
32 0.4
4 -0.68
5 0.03
6 0.08
7 0.08
8 -0.15
9 0.08

> <PUBCHEM_EFFECTIVE_ROTOR_COUNT>
5

> <PUBCHEM_PHARMACOPHORE_FEATURES>
6
1 1 acceptor
1 2 acceptor
1 3 acceptor
1 4 acceptor
1 4 donor
6 5 6 7 8 9 10 rings

> <PUBCHEM_HEAVY_ATOM_COUNT>
16

> <PUBCHEM_ATOM_DEF_STEREO_COUNT>
0

> <PUBCHEM_ATOM_UDEF_STEREO_COUNT>
0

> <PUBCHEM_BOND_DEF_STEREO_COUNT>
1

> <PUBCHEM_BOND_UDEF_STEREO_COUNT>
0

> <PUBCHEM_ISOTOPIC_ATOM_COUNT>
0

> <PUBCHEM_COMPONENT_COUNT>
1

> <PUBCHEM_CACTVS_TAUTO_COUNT>
1

> <PUBCHEM_CONFORMER_ID>
043688B000000007

> <PUBCHEM_MMFF94_ENERGY>
71.3825

> <PUBCHEM_FEATURE_SELFOVERLAP>
30.452

> <PUBCHEM_SHAPE_FINGERPRINT>
10130415 120 18114755849271041380
10967382 1 18122924039934259805
11132069 177 18341612551490976732
11578080 2 17532629408329217484
12202030 40 16154277267751025827
12251169 10 18411697660660951480
12382932 28 18411419479787182042
12633257 1 18198882761510177634
13083527 12 17836627992193062422
13140716 1 18339087093820589153
13172582 1 18337680715100468493
14022347 108 18047219395607050334
14178342 30 18413106173521577114
15375462 189 17967257498682218234
16945 1 18339090310656057391
193761 8 18124610918325602005
19765921 60 17318496246149746228
20388701 513 18193839236911780028
20510252 161 18053948346856073776
20511035 2 18059860613888208397
20600515 1 18341900649729556412
212916 134 18199462169461655281
21421861 104 17975987771141101099
21452121 199 17837196448331642811
21501502 16 18266468791717837285
21650355 55 18336246986751248218
22112679 90 18334013912847351862
23184049 29 18266460004077833327
2334 1 18124045782196786861
23366157 5 17898294054740107844
23388829 49 17839447135853767534
23402539 116 18198898124228308797
23419403 2 17408751848274642501
23552423 10 17974862966329261669
2748010 2 18197232544659181565
4072396 5 17971473996999943681
43471831 8 17544474610145859348
58807428 26 18195251005641654139
589210 1 18195540413354349389
5902787 121 18335703892262857102
7364860 26 18053674851796568076
74978 22 18337679714605054349
81228 2 18270405988106120702
90316 7 18262510391060319000

> <PUBCHEM_SHAPE_MULTIPOLES>
305.8
5.45
3.34
1.07
2.43
0.24
0.23
-0.54
2.74
-2
-0.41
0.91
-0.01
-0.67

> <PUBCHEM_SHAPE_SELFOVERLAP>
626.52

> <PUBCHEM_SHAPE_VOLUME>
177.9

> <PUBCHEM_COORDINATE_TYPE>
2
5
10

$$$$
