10059539
  -OEChem-08252012093D

 31 31  0     0  0  0  0  0  0999 V2000
    0.1954    2.8434    0.6995 O   0  0  0  0  0  0  0  0  0  0  0  0
    4.2344   -1.5444    0.7484 O   0  0  0  0  0  0  0  0  0  0  0  0
   -3.4752   -2.6346    0.5705 O   0  0  0  0  0  0  0  0  0  0  0  0
    3.3076    0.1947   -0.3840 O   0  0  0  0  0  0  0  0  0  0  0  0
   -0.9834   -0.0468    0.0336 N   0  0  0  0  0  0  0  0  0  0  0  0
    0.2976   -0.6684    0.3557 C   0  0  0  0  0  0  0  0  0  0  0  0
    0.9393   -1.3256   -0.8675 C   0  0  0  0  0  0  0  0  0  0  0  0
   -1.1417    1.2438   -0.3770 C   0  0  0  0  0  0  0  0  0  0  0  0
   -2.1917   -0.6754    0.1018 C   0  0  0  0  0  0  0  0  0  0  0  0
    2.2747   -1.9839   -0.5373 C   0  0  0  0  0  0  0  0  0  0  0  0
   -2.4886    1.4502   -0.5791 C   0  0  0  0  0  0  0  0  0  0  0  0
   -0.0060    2.1739   -0.5441 C   0  0  0  0  0  0  0  0  0  0  0  0
   -3.1527    0.2359   -0.2763 C   0  0  0  0  0  0  0  0  0  0  0  0
   -2.3889   -2.0364    0.4981 C   0  0  0  0  0  0  0  0  0  0  0  0
    3.3036   -0.9872   -0.0655 C   0  0  0  0  0  0  0  0  0  0  0  0
    1.2757    3.7607    0.6232 C   0  0  0  0  0  0  0  0  0  0  0  0
    0.9391    0.1061    0.7878 H   0  0  0  0  0  0  0  0  0  0  0  0
    0.1429   -1.3907    1.1631 H   0  0  0  0  0  0  0  0  0  0  0  0
    1.0762   -0.5856   -1.6654 H   0  0  0  0  0  0  0  0  0  0  0  0
    0.2627   -2.0889   -1.2713 H   0  0  0  0  0  0  0  0  0  0  0  0
    2.1234   -2.7355    0.2460 H   0  0  0  0  0  0  0  0  0  0  0  0
    2.6761   -2.4872   -1.4231 H   0  0  0  0  0  0  0  0  0  0  0  0
   -2.9451    2.3735   -0.9081 H   0  0  0  0  0  0  0  0  0  0  0  0
    0.9123    1.6712   -0.8615 H   0  0  0  0  0  0  0  0  0  0  0  0
   -0.2533    2.9175   -1.3121 H   0  0  0  0  0  0  0  0  0  0  0  0
   -4.2172    0.0530   -0.3301 H   0  0  0  0  0  0  0  0  0  0  0  0
   -1.4882   -2.6184    0.7470 H   0  0  0  0  0  0  0  0  0  0  0  0
    2.2082    3.2370    0.3912 H   0  0  0  0  0  0  0  0  0  0  0  0
    1.3833    4.2480    1.5959 H   0  0  0  0  0  0  0  0  0  0  0  0
    1.0764    4.5281   -0.1311 H   0  0  0  0  0  0  0  0  0  0  0  0
    4.8997   -0.8882    1.0467 H   0  0  0  0  0  0  0  0  0  0  0  0
  1 12  1  0  0  0  0
  1 16  1  0  0  0  0
  2 15  1  0  0  0  0
  2 31  1  0  0  0  0
  3 14  2  0  0  0  0
  4 15  2  0  0  0  0
  5  6  1  0  0  0  0
  5  8  1  0  0  0  0
  5  9  1  0  0  0  0
  6  7  1  0  0  0  0
  6 17  1  0  0  0  0
  6 18  1  0  0  0  0
  7 10  1  0  0  0  0
  7 19  1  0  0  0  0
  7 20  1  0  0  0  0
  8 11  2  0  0  0  0
  8 12  1  0  0  0  0
  9 13  2  0  0  0  0
  9 14  1  0  0  0  0
 10 15  1  0  0  0  0
 10 21  1  0  0  0  0
 10 22  1  0  0  0  0
 11 13  1  0  0  0  0
 11 23  1  0  0  0  0
 12 24  1  0  0  0  0
 12 25  1  0  0  0  0
 13 26  1  0  0  0  0
 14 27  1  0  0  0  0
 16 28  1  0  0  0  0
 16 29  1  0  0  0  0
 16 30  1  0  0  0  0
M  END
> <PUBCHEM_COMPOUND_CID>
10059539

> <PUBCHEM_CONFORMER_RMSD>
0.8

> <PUBCHEM_CONFORMER_DIVERSEORDER>
1
46
2
28
25
5
50
42
7
19
53
49
55
45
58
27
34
37
51
20
24
13
52
9
40
30
11
23
56
36
44
4
47
43
10
38
3
15
39
6
31
21
26
14
41
29
16
35
18
12
33
48
54
32
17
22
57
8

> <PUBCHEM_MMFF94_PARTIAL_CHARGES>
19
1 -0.56
10 0.06
11 -0.15
12 0.46
13 -0.15
14 0.59
15 0.66
16 0.28
2 -0.65
23 0.15
26 0.15
27 0.06
3 -0.57
31 0.5
4 -0.57
5 0.05
6 0.26
8 -0.33
9 -0.24

> <PUBCHEM_EFFECTIVE_ROTOR_COUNT>
7

> <PUBCHEM_PHARMACOPHORE_FEATURES>
7
1 1 acceptor
1 2 acceptor
1 3 acceptor
1 4 acceptor
1 5 cation
3 2 4 15 anion
5 5 8 9 11 13 rings

> <PUBCHEM_HEAVY_ATOM_COUNT>
16

> <PUBCHEM_ATOM_DEF_STEREO_COUNT>
0

> <PUBCHEM_ATOM_UDEF_STEREO_COUNT>
0

> <PUBCHEM_BOND_DEF_STEREO_COUNT>
0

> <PUBCHEM_BOND_UDEF_STEREO_COUNT>
0

> <PUBCHEM_ISOTOPIC_ATOM_COUNT>
0

> <PUBCHEM_COMPONENT_COUNT>
1

> <PUBCHEM_CACTVS_TAUTO_COUNT>
1

> <PUBCHEM_CONFORMER_ID>
00997F1300000001

> <PUBCHEM_MMFF94_ENERGY>
17.9758

> <PUBCHEM_FEATURE_SELFOVERLAP>
35.58

> <PUBCHEM_SHAPE_FINGERPRINT>
108231 29 18408891762605456458
11680986 33 18265044907396774909
13083527 12 18053934332293546903
13140716 1 18411419488434931224
14022349 108 17979927321113199859
19591789 44 17690567806955525620
20510252 161 17979633429365125681
21029758 11 18340478964162620509
21339142 51 18337104571023234287
21501502 16 18263938789913989005
21524375 3 16758039589578252852
21650355 55 18337387132616303114
22182313 1 17898555726197239839
22213442 358 18410857698027993983
23402539 116 18196075656357602503
23419403 2 17972574822523644535
23557571 272 18198633137726187974
23559900 14 18194679264170239590
2748010 2 18118958337795421749
3250762 1 18337103579424190309
43471831 8 17761775474009638289
5493415 88 18336547204627576383
58554843 112 17977111484888087855
5902787 121 18335420183597346946
7364860 26 18196655322423959777
81228 2 17911534098619901264
9709674 26 18196653990826550870

> <PUBCHEM_SHAPE_MULTIPOLES>
300.81
5.83
3.78
0.84
3.33
3.21
-0.02
-4.07
0.45
0.14
0.9
0.08
0.02
0.83

> <PUBCHEM_SHAPE_SELFOVERLAP>
609.001

> <PUBCHEM_SHAPE_VOLUME>
177.1

> <PUBCHEM_COORDINATE_TYPE>
2
5
10

$$$$
