66957732
  -OEChem-08252011532D

 46 46  0     0  0  0  0  0  0999 V2000
    2.2690    6.1735    0.0000 O   0  0  0  0  0  0  0  0  0  0  0  0
    7.0749    1.0369    0.0000 O   0  0  0  0  0  0  0  0  0  0  0  0
    2.2690    3.1735    0.0000 C   0  0  0  0  0  0  0  0  0  0  0  0
    1.4030    4.6735    0.0000 C   0  0  0  0  0  0  0  0  0  0  0  0
    1.4030    3.6735    0.0000 C   0  0  0  0  0  0  0  0  0  0  0  0
    2.2690    2.1735    0.0000 C   0  0  0  0  0  0  0  0  0  0  0  0
    3.1350    3.6735    0.0000 C   0  0  0  0  0  0  0  0  0  0  0  0
    2.2690    5.1735    0.0000 C   0  0  0  0  0  0  0  0  0  0  0  0
    3.1350    4.6735    0.0000 C   0  0  0  0  0  0  0  0  0  0  0  0
    7.0749    4.0369    0.0000 C   0  0  0  0  0  0  0  0  0  0  0  0
    7.0749    5.0369    0.0000 C   0  0  0  0  0  0  0  0  0  0  0  0
    0.5369    5.1735    0.0000 C   0  0  0  0  0  0  0  0  0  0  0  0
    7.9409    3.5369    0.0000 C   0  0  0  0  0  0  0  0  0  0  0  0
    6.2089    3.5369    0.0000 C   0  0  0  0  0  0  0  0  0  0  0  0
    3.1350    1.6735    0.0000 C   0  0  0  0  0  0  0  0  0  0  0  0
    7.0749    2.0369    0.0000 C   0  0  0  0  0  0  0  0  0  0  0  0
    7.9409    2.5369    0.0000 C   0  0  0  0  0  0  0  0  0  0  0  0
    6.2089    2.5369    0.0000 C   0  0  0  0  0  0  0  0  0  0  0  0
    7.9409    5.5369    0.0000 C   0  0  0  0  0  0  0  0  0  0  0  0
    3.1350    0.6735    0.0000 C   0  0  0  0  0  0  0  0  0  0  0  0
    7.9409    6.5369    0.0000 C   0  0  0  0  0  0  0  0  0  0  0  0
    6.2089    0.5369    0.0000 C   0  0  0  0  0  0  0  0  0  0  0  0
    0.8660    3.3635    0.0000 H   0  0  0  0  0  0  0  0  0  0  0  0
    1.6584    2.2811    0.0000 H   0  0  0  0  0  0  0  0  0  0  0  0
    2.0569    1.5909    0.0000 H   0  0  0  0  0  0  0  0  0  0  0  0
    3.6720    3.3635    0.0000 H   0  0  0  0  0  0  0  0  0  0  0  0
    3.6720    4.9835    0.0000 H   0  0  0  0  0  0  0  0  0  0  0  0
    6.8629    5.6195    0.0000 H   0  0  0  0  0  0  0  0  0  0  0  0
    6.4643    4.9293    0.0000 H   0  0  0  0  0  0  0  0  0  0  0  0
    0.8469    5.7104    0.0000 H   0  0  0  0  0  0  0  0  0  0  0  0
    0.0000    5.4835    0.0000 H   0  0  0  0  0  0  0  0  0  0  0  0
    0.2269    4.6365    0.0000 H   0  0  0  0  0  0  0  0  0  0  0  0
    8.4779    3.8469    0.0000 H   0  0  0  0  0  0  0  0  0  0  0  0
    5.6720    3.8469    0.0000 H   0  0  0  0  0  0  0  0  0  0  0  0
    3.6720    1.9835    0.0000 H   0  0  0  0  0  0  0  0  0  0  0  0
    8.4779    2.2269    0.0000 H   0  0  0  0  0  0  0  0  0  0  0  0
    5.6720    2.2269    0.0000 H   0  0  0  0  0  0  0  0  0  0  0  0
    8.4779    5.2269    0.0000 H   0  0  0  0  0  0  0  0  0  0  0  0
    2.8059    6.4835    0.0000 H   0  0  0  0  0  0  0  0  0  0  0  0
    2.5981    0.3635    0.0000 H   0  0  0  0  0  0  0  0  0  0  0  0
    3.6720    0.3635    0.0000 H   0  0  0  0  0  0  0  0  0  0  0  0
    8.4779    6.8469    0.0000 H   0  0  0  0  0  0  0  0  0  0  0  0
    7.4040    6.8469    0.0000 H   0  0  0  0  0  0  0  0  0  0  0  0
    5.8989    1.0739    0.0000 H   0  0  0  0  0  0  0  0  0  0  0  0
    5.6720    0.2269    0.0000 H   0  0  0  0  0  0  0  0  0  0  0  0
    6.5189    0.0000    0.0000 H   0  0  0  0  0  0  0  0  0  0  0  0
  1  8  1  0  0  0  0
  1 39  1  0  0  0  0
  2 16  1  0  0  0  0
  2 22  1  0  0  0  0
  3  5  2  0  0  0  0
  3  6  1  0  0  0  0
  3  7  1  0  0  0  0
  4  5  1  0  0  0  0
  4  8  2  0  0  0  0
  4 12  1  0  0  0  0
  5 23  1  0  0  0  0
  6 15  1  0  0  0  0
  6 24  1  0  0  0  0
  6 25  1  0  0  0  0
  7  9  2  0  0  0  0
  7 26  1  0  0  0  0
  8  9  1  0  0  0  0
  9 27  1  0  0  0  0
 10 11  1  0  0  0  0
 10 13  2  0  0  0  0
 10 14  1  0  0  0  0
 11 19  1  0  0  0  0
 11 28  1  0  0  0  0
 11 29  1  0  0  0  0
 12 30  1  0  0  0  0
 12 31  1  0  0  0  0
 12 32  1  0  0  0  0
 13 17  1  0  0  0  0
 13 33  1  0  0  0  0
 14 18  2  0  0  0  0
 14 34  1  0  0  0  0
 15 20  2  0  0  0  0
 15 35  1  0  0  0  0
 16 17  2  0  0  0  0
 16 18  1  0  0  0  0
 17 36  1  0  0  0  0
 18 37  1  0  0  0  0
 19 21  2  0  0  0  0
 19 38  1  0  0  0  0
 20 40  1  0  0  0  0
 20 41  1  0  0  0  0
 21 42  1  0  0  0  0
 21 43  1  0  0  0  0
 22 44  1  0  0  0  0
 22 45  1  0  0  0  0
 22 46  1  0  0  0  0
M  END
> <PUBCHEM_COMPOUND_CID>
66957732

> <PUBCHEM_COMPOUND_CANONICALIZED>
1

> <PUBCHEM_CACTVS_COMPLEXITY>
243

> <PUBCHEM_CACTVS_HBOND_ACCEPTOR>
2

> <PUBCHEM_CACTVS_HBOND_DONOR>
1

> <PUBCHEM_CACTVS_ROTATABLE_BOND>
5

> <PUBCHEM_CACTVS_SUBSKEYS>
AAADceB4MAAAAAAAAAAAAAAAAAAAAAAAAAAwYAAAAAAAAAABQAAAGgAACAAADASAmAIyBoAABgCAAiBCAAACCAAgIAAIiAAGCIgMJiKGMRqAcCAkwBEIuAeAwOAOIAACAAAIAABAAAQAABAAAAAAAAAAAA==

> <PUBCHEM_IUPAC_OPENEYE_NAME>
1-allyl-4-methoxy-benzene;4-allyl-2-methyl-phenol

> <PUBCHEM_IUPAC_CAS_NAME>
1-methoxy-4-prop-2-enylbenzene;2-methyl-4-prop-2-enylphenol

> <PUBCHEM_IUPAC_NAME_MARKUP>
1-methoxy-4-prop-2-enylbenzene;2-methyl-4-prop-2-enylphenol

> <PUBCHEM_IUPAC_NAME>
1-methoxy-4-prop-2-enylbenzene;2-methyl-4-prop-2-enylphenol

> <PUBCHEM_IUPAC_SYSTEMATIC_NAME>
1-methoxy-4-prop-2-enyl-benzene;2-methyl-4-prop-2-enyl-phenol

> <PUBCHEM_IUPAC_TRADITIONAL_NAME>
1-allyl-4-methoxy-benzene;4-allyl-2-methyl-phenol

> <PUBCHEM_IUPAC_INCHI>
InChI=1S/2C10H12O/c1-3-4-9-5-7-10(11-2)8-6-9;1-3-4-9-5-6-10(11)8(2)7-9/h3,5-8H,1,4H2,2H3;3,5-7,11H,1,4H2,2H3

> <PUBCHEM_IUPAC_INCHIKEY>
MVMVVEIJWOKMLH-UHFFFAOYSA-N

> <PUBCHEM_EXACT_MASS>
296.17763

> <PUBCHEM_MOLECULAR_FORMULA>
C20H24O2

> <PUBCHEM_MOLECULAR_WEIGHT>
296.4

> <PUBCHEM_OPENEYE_CAN_SMILES>
CC1=C(C=CC(=C1)CC=C)O.COC1=CC=C(C=C1)CC=C

> <PUBCHEM_OPENEYE_ISO_SMILES>
CC1=C(C=CC(=C1)CC=C)O.COC1=CC=C(C=C1)CC=C

> <PUBCHEM_CACTVS_TPSA>
29.5

> <PUBCHEM_MONOISOTOPIC_WEIGHT>
296.17763

> <PUBCHEM_TOTAL_CHARGE>
0

> <PUBCHEM_HEAVY_ATOM_COUNT>
22

> <PUBCHEM_ATOM_DEF_STEREO_COUNT>
0

> <PUBCHEM_ATOM_UDEF_STEREO_COUNT>
0

> <PUBCHEM_BOND_DEF_STEREO_COUNT>
0

> <PUBCHEM_BOND_UDEF_STEREO_COUNT>
0

> <PUBCHEM_ISOTOPIC_ATOM_COUNT>
0

> <PUBCHEM_COMPONENT_COUNT>
2

> <PUBCHEM_CACTVS_TAUTO_COUNT>
-1

> <PUBCHEM_COORDINATE_TYPE>
1
5
255

> <PUBCHEM_BONDANNOTATIONS>
10  13  8
10  14  8
13  17  8
14  18  8
16  17  8
16  18  8
3  5  8
3  7  8
4  5  8
4  8  8
7  9  8
8  9  8

$$$$
