44256718
  -OEChem-08252006453D

 74 78  0     1  0  0  0  0  0999 V2000
    1.1252   -2.3185    0.2717 O   0  0  0  0  0  0  0  0  0  0  0  0
   -5.0240    0.7839    0.4636 O   0  0  0  0  0  0  0  0  0  0  0  0
    2.1458   -0.4283    1.2173 O   0  0  0  0  0  0  0  0  0  0  0  0
   -2.8048    0.7756    1.2277 O   0  0  0  0  0  0  0  0  0  0  0  0
    4.7867   -4.1742   -0.2667 O   0  0  0  0  0  0  0  0  0  0  0  0
    2.4698   -5.0910   -1.7293 O   0  0  0  0  0  0  0  0  0  0  0  0
   -5.1186   -3.3528    0.3271 O   0  0  0  0  0  0  0  0  0  0  0  0
   -7.0814   -1.8108   -1.1278 O   0  0  0  0  0  0  0  0  0  0  0  0
    3.4675   -2.8087    1.7766 O   0  0  0  0  0  0  0  0  0  0  0  0
   -4.3042   -1.3849    2.1280 O   0  0  0  0  0  0  0  0  0  0  0  0
   -1.2303   -3.2522   -0.7680 O   0  0  0  0  0  0  0  0  0  0  0  0
   -6.9832    2.3936   -0.5716 O   0  0  0  0  0  0  0  0  0  0  0  0
    1.3458    2.7718   -0.3898 O   0  3  0  0  0  0  0  0  0  0  0  0
   -2.8336    4.9628   -1.1167 O   0  0  0  0  0  0  0  0  0  0  0  0
    6.6735    1.7995    1.8143 O   0  0  0  0  0  0  0  0  0  0  0  0
    7.6572    1.9753   -0.7798 O   0  0  0  0  0  0  0  0  0  0  0  0
    3.6691   -3.3451   -0.5733 C   0  0  1  0  0  0  0  0  0  0  0  0
    2.4022   -4.2036   -0.6160 C   0  0  1  0  0  0  0  0  0  0  0  0
   -4.8949   -2.0217   -0.1295 C   0  0  1  0  0  0  0  0  0  0  0  0
   -6.2231   -1.2605   -0.1318 C   0  0  1  0  0  0  0  0  0  0  0  0
    3.5386   -2.2339    0.4680 C   0  0  1  0  0  0  0  0  0  0  0  0
   -3.8702   -1.3251    0.7657 C   0  0  1  0  0  0  0  0  0  0  0  0
    1.1575   -3.3159   -0.7545 C   0  0  1  0  0  0  0  0  0  0  0  0
   -5.9888    0.2261   -0.4346 C   0  0  1  0  0  0  0  0  0  0  0  0
    2.2540   -1.4428    0.2233 C   0  0  1  0  0  0  0  0  0  0  0  0
   -3.7487    0.1453    0.3671 C   0  0  1  0  0  0  0  0  0  0  0  0
   -0.1271   -4.1308   -0.6429 C   0  0  0  0  0  0  0  0  0  0  0  0
   -7.2729    1.0366   -0.2901 C   0  0  0  0  0  0  0  0  0  0  0  0
   -2.1584    1.8013    0.5731 C   0  0  0  0  0  0  0  0  0  0  0  0
    1.4800    0.6830    0.7416 C   0  0  0  0  0  0  0  0  0  0  0  0
   -0.7196    1.6889    0.4585 C   0  0  0  0  0  0  0  0  0  0  0  0
    0.0452    0.6893    0.9165 C   0  0  0  0  0  0  0  0  0  0  0  0
    2.1124    1.6984    0.1249 C   0  0  0  0  0  0  0  0  0  0  0  0
    0.0556    2.7640   -0.2335 C   0  0  0  0  0  0  0  0  0  0  0  0
   -2.8055    2.8599    0.0601 C   0  0  0  0  0  0  0  0  0  0  0  0
   -0.7542    3.8953   -0.7705 C   0  0  0  0  0  0  0  0  0  0  0  0
   -2.0852    3.9153   -0.6201 C   0  0  0  0  0  0  0  0  0  0  0  0
    3.5648    1.7705   -0.1089 C   0  0  0  0  0  0  0  0  0  0  0  0
    4.4466    1.7511    0.9718 C   0  0  0  0  0  0  0  0  0  0  0  0
    4.0586    1.8585   -1.4105 C   0  0  0  0  0  0  0  0  0  0  0  0
    5.8222    1.8196    0.7509 C   0  0  0  0  0  0  0  0  0  0  0  0
    5.4343    1.9272   -1.6313 C   0  0  0  0  0  0  0  0  0  0  0  0
    6.3160    1.9077   -0.5507 C   0  0  0  0  0  0  0  0  0  0  0  0
    3.8552   -2.9118   -1.5639 H   0  0  0  0  0  0  0  0  0  0  0  0
    2.3426   -4.8245    0.2855 H   0  0  0  0  0  0  0  0  0  0  0  0
   -4.5094   -2.0963   -1.1539 H   0  0  0  0  0  0  0  0  0  0  0  0
   -6.7278   -1.3893    0.8327 H   0  0  0  0  0  0  0  0  0  0  0  0
    4.4193   -1.5836    0.4636 H   0  0  0  0  0  0  0  0  0  0  0  0
   -2.9013   -1.8304    0.7332 H   0  0  0  0  0  0  0  0  0  0  0  0
    1.1486   -2.8054   -1.7272 H   0  0  0  0  0  0  0  0  0  0  0  0
   -5.6186    0.3619   -1.4601 H   0  0  0  0  0  0  0  0  0  0  0  0
    2.3091   -0.9956   -0.7804 H   0  0  0  0  0  0  0  0  0  0  0  0
   -3.4025    0.1840   -0.6778 H   0  0  0  0  0  0  0  0  0  0  0  0
   -0.1971   -4.6151    0.3368 H   0  0  0  0  0  0  0  0  0  0  0  0
   -0.1904   -4.8906   -1.4277 H   0  0  0  0  0  0  0  0  0  0  0  0
   -7.6533    0.9832    0.7355 H   0  0  0  0  0  0  0  0  0  0  0  0
   -8.0467    0.6901   -0.9817 H   0  0  0  0  0  0  0  0  0  0  0  0
    5.5735   -3.6037   -0.2347 H   0  0  0  0  0  0  0  0  0  0  0  0
    2.5181   -4.5547   -2.5389 H   0  0  0  0  0  0  0  0  0  0  0  0
   -4.2595   -3.8084    0.3323 H   0  0  0  0  0  0  0  0  0  0  0  0
   -6.6495   -1.6998   -1.9919 H   0  0  0  0  0  0  0  0  0  0  0  0
    2.5996   -3.2347    1.8773 H   0  0  0  0  0  0  0  0  0  0  0  0
   -5.0589   -0.7819    2.2359 H   0  0  0  0  0  0  0  0  0  0  0  0
   -0.3913   -0.1560    1.4409 H   0  0  0  0  0  0  0  0  0  0  0  0
   -2.0363   -3.7917   -0.6988 H   0  0  0  0  0  0  0  0  0  0  0  0
   -7.8121    2.8914   -0.4689 H   0  0  0  0  0  0  0  0  0  0  0  0
   -3.8790    2.9794    0.1532 H   0  0  0  0  0  0  0  0  0  0  0  0
   -0.2127    4.6848   -1.2789 H   0  0  0  0  0  0  0  0  0  0  0  0
    4.0668    1.6881    1.9894 H   0  0  0  0  0  0  0  0  0  0  0  0
    3.3832    1.8736   -2.2624 H   0  0  0  0  0  0  0  0  0  0  0  0
   -2.2316    5.5955   -1.5452 H   0  0  0  0  0  0  0  0  0  0  0  0
    5.8053    1.9952   -2.6504 H   0  0  0  0  0  0  0  0  0  0  0  0
    6.1552    1.7339    2.6347 H   0  0  0  0  0  0  0  0  0  0  0  0
    7.8124    2.0315   -1.7383 H   0  0  0  0  0  0  0  0  0  0  0  0
  1 23  1  0  0  0  0
  1 25  1  0  0  0  0
  2 24  1  0  0  0  0
  2 26  1  0  0  0  0
  3 25  1  0  0  0  0
  3 30  1  0  0  0  0
  4 26  1  0  0  0  0
  4 29  1  0  0  0  0
  5 17  1  0  0  0  0
  5 58  1  0  0  0  0
  6 18  1  0  0  0  0
  6 59  1  0  0  0  0
  7 19  1  0  0  0  0
  7 60  1  0  0  0  0
  8 20  1  0  0  0  0
  8 61  1  0  0  0  0
  9 21  1  0  0  0  0
  9 62  1  0  0  0  0
 10 22  1  0  0  0  0
 10 63  1  0  0  0  0
 11 27  1  0  0  0  0
 11 65  1  0  0  0  0
 12 28  1  0  0  0  0
 12 66  1  0  0  0  0
 13 33  1  0  0  0  0
 13 34  2  0  0  0  0
 14 37  1  0  0  0  0
 14 71  1  0  0  0  0
 15 41  1  0  0  0  0
 15 73  1  0  0  0  0
 16 43  1  0  0  0  0
 16 74  1  0  0  0  0
 17 18  1  0  0  0  0
 17 21  1  0  0  0  0
 17 44  1  0  0  0  0
 18 23  1  0  0  0  0
 18 45  1  0  0  0  0
 19 20  1  0  0  0  0
 19 22  1  0  0  0  0
 19 46  1  0  0  0  0
 20 24  1  0  0  0  0
 20 47  1  0  0  0  0
 21 25  1  0  0  0  0
 21 48  1  0  0  0  0
 22 26  1  0  0  0  0
 22 49  1  0  0  0  0
 23 27  1  0  0  0  0
 23 50  1  0  0  0  0
 24 28  1  0  0  0  0
 24 51  1  0  0  0  0
 25 52  1  0  0  0  0
 26 53  1  0  0  0  0
 27 54  1  0  0  0  0
 27 55  1  0  0  0  0
 28 56  1  0  0  0  0
 28 57  1  0  0  0  0
 29 31  1  0  0  0  0
 29 35  2  0  0  0  0
 30 32  1  0  0  0  0
 30 33  2  0  0  0  0
 31 32  2  0  0  0  0
 31 34  1  0  0  0  0
 32 64  1  0  0  0  0
 33 38  1  0  0  0  0
 34 36  1  0  0  0  0
 35 37  1  0  0  0  0
 35 67  1  0  0  0  0
 36 37  2  0  0  0  0
 36 68  1  0  0  0  0
 38 39  2  0  0  0  0
 38 40  1  0  0  0  0
 39 41  1  0  0  0  0
 39 69  1  0  0  0  0
 40 42  2  0  0  0  0
 40 70  1  0  0  0  0
 41 43  2  0  0  0  0
 42 43  1  0  0  0  0
 42 72  1  0  0  0  0
M  CHG  1  13   1
M  END
> <PUBCHEM_COMPOUND_CID>
44256718

> <PUBCHEM_CONFORMER_RMSD>
1.2

> <PUBCHEM_CONFORMER_DIVERSEORDER>
2
25
158
162
50
114
208
65
82
178
66
31
41
225
250
247
45
46
169
160
248
47
244
245
240
215
53
19
134
253
36
54
167
141
133
87
78
96
32
139
79
67
153
186
204
197
86
55
56
228
170
106
21
229
35
75
260
112
10
258
97
199
233
182
73
44
234
146
252
76
42
196
165
194
80
85
212
216
11
99
51
183
58
190
22
60
116
254
226
195
26
27
222
231
5
24
214
150
59
202
14
136
104
90
221
71
48
181
18
191
198
131
88
172
89
187
17
92
151
127
163
137
9
220
132
140
124
166
29
227
110
145
125
213
128
223
91
49
175
12
255
161
33
30
6
117
4
38
126
62
123
130
3
113
189
95
251
119
236
201
176
16
74
43
143
209
138
147
257
118
239
256
259
219
184
102
109
64
154
68
237
108
57
115
63
210
144
238
121
93
185
179
235
120
168
105
211
15
232
103
13
171
192
20
77
122
243
205
218
180
61
242
249
40
246
156
111
129
8
70
34
149
135
173
152
72
69
164
159
177
23
52
101
28
230
155
98
39
148
174
1
7
200
203
81
37
100
83
207
206
217
188
193
241
94
84
224
107
157
142

> <PUBCHEM_MMFF94_PARTIAL_CHARGES>
60
1 -0.56
10 -0.68
11 -0.68
12 -0.68
13 -0.86
14 -0.53
15 -0.53
16 -0.53
17 0.28
18 0.28
19 0.28
2 -0.56
20 0.28
21 0.28
22 0.28
23 0.28
24 0.28
25 0.56
26 0.56
27 0.28
28 0.28
29 0.08
3 -0.36
30 0.08
31 0.01
32 -0.15
33 0.88
34 0.92
35 -0.15
36 -0.14
37 0.08
38 0.03
39 -0.15
4 -0.36
40 -0.15
41 0.08
42 -0.15
43 0.08
5 -0.68
58 0.4
59 0.4
6 -0.68
60 0.4
61 0.4
62 0.4
63 0.4
64 0.15
65 0.4
66 0.4
67 0.15
68 0.15
69 0.15
7 -0.68
70 0.15
71 0.45
72 0.15
73 0.45
74 0.45
8 -0.68
9 -0.68

> <PUBCHEM_EFFECTIVE_ROTOR_COUNT>
9.4

> <PUBCHEM_PHARMACOPHORE_FEATURES>
28
1 1 acceptor
1 10 acceptor
1 10 donor
1 11 acceptor
1 11 donor
1 12 acceptor
1 12 donor
1 14 donor
1 15 donor
1 16 donor
1 2 acceptor
1 3 acceptor
1 4 acceptor
1 5 acceptor
1 5 donor
1 6 acceptor
1 6 donor
1 7 acceptor
1 7 donor
1 8 acceptor
1 8 donor
1 9 acceptor
1 9 donor
6 1 17 18 21 23 25 rings
6 13 30 31 32 33 34 rings
6 2 19 20 22 24 26 rings
6 29 31 34 35 36 37 rings
6 38 39 40 41 42 43 rings

> <PUBCHEM_HEAVY_ATOM_COUNT>
43

> <PUBCHEM_ATOM_DEF_STEREO_COUNT>
5

> <PUBCHEM_ATOM_UDEF_STEREO_COUNT>
5

> <PUBCHEM_BOND_DEF_STEREO_COUNT>
0

> <PUBCHEM_BOND_UDEF_STEREO_COUNT>
0

> <PUBCHEM_ISOTOPIC_ATOM_COUNT>
0

> <PUBCHEM_COMPONENT_COUNT>
1

> <PUBCHEM_CACTVS_TAUTO_COUNT>
77

> <PUBCHEM_CONFORMER_ID>
02A34DCE00000002

> <PUBCHEM_MMFF94_ENERGY>
137.3808

> <PUBCHEM_FEATURE_SELFOVERLAP>
142.299

> <PUBCHEM_SHAPE_FINGERPRINT>
10050765 1 18192147105617822240
10190108 129 18340779246178342113
11135926 11 18410292536477625781
11136131 41 18408879621208366210
11513181 2 18337961082133794774
11719270 70 18411416233081809960
11828422 8 13191779505293040718
11963148 33 18335695096091279098
1361 2 18411140237977233170
13617811 41 18336265755278784325
14068700 686 18410293597176642860
14117953 113 18339358695052562909
14415361 349 18201434835282802895
1454969 45 18336827593252322600
15320467 1 18122906701394638911
15361156 5 18262531282081608747
15444296 9 17749382659457389461
18681886 176 18265607856717882569
19311894 1 17908420600040261990
19315958 150 18339645538981915457
20028762 73 18269279126543582092
20775438 99 17832391268991022229
22311459 1 18336828683910622352
23559900 14 17835231251933513744
5265222 85 18049169061704500996
59755656 215 18410857698096526708

> <PUBCHEM_SHAPE_MULTIPOLES>
791.01
17.16
6.88
1.3
9.22
4.76
0.17
-3.89
-1.33
-2.86
-2.69
-0.89
0.12
0.75

> <PUBCHEM_SHAPE_SELFOVERLAP>
1715.698

> <PUBCHEM_SHAPE_VOLUME>
422.8

> <PUBCHEM_COORDINATE_TYPE>
2
5
10

$$$$
