73330
  -OEChem-08252006283D

 67 71  0     1  0  0  0  0  0999 V2000
   -1.9367   -0.6162    0.6229 O   0  0  0  0  0  0  0  0  0  0  0  0
    1.4413   -1.7102   -0.2586 O   0  0  0  0  0  0  0  0  0  0  0  0
   -0.1163   -2.3086   -2.6771 O   0  0  0  0  0  0  0  0  0  0  0  0
   -2.8687   -2.9480   -2.0658 O   0  0  0  0  0  0  0  0  0  0  0  0
   -4.0607   -0.9946   -0.2821 O   0  0  0  0  0  0  0  0  0  0  0  0
    0.8496    0.7843    1.2133 O   0  0  0  0  0  0  0  0  0  0  0  0
    2.2642   -0.4568   -2.0320 O   0  0  0  0  0  0  0  0  0  0  0  0
   -4.3004   -0.7976    1.9988 O   0  0  0  0  0  0  0  0  0  0  0  0
    2.6786    0.4984    2.6177 O   0  0  0  0  0  0  0  0  0  0  0  0
    6.3967    0.6724    1.2001 O   0  0  0  0  0  0  0  0  0  0  0  0
    5.6444    1.6114   -1.7324 O   0  0  0  0  0  0  0  0  0  0  0  0
    5.8461   -4.0405    0.7209 O   0  0  0  0  0  0  0  0  0  0  0  0
    7.3251   -1.8668    1.5745 O   0  0  0  0  0  0  0  0  0  0  0  0
    4.7808    4.1681   -2.1374 O   0  0  0  0  0  0  0  0  0  0  0  0
    2.6064    5.1510   -0.7420 O   0  0  0  0  0  0  0  0  0  0  0  0
   -8.6239   -0.4614   -2.0107 O   0  0  0  0  0  0  0  0  0  0  0  0
   -8.4528    2.2309    1.9461 O   0  0  0  0  0  0  0  0  0  0  0  0
   -9.7967    1.3994   -0.3282 O   0  0  0  0  0  0  0  0  0  0  0  0
    0.0888   -1.2791   -0.4931 C   0  0  1  0  0  0  0  0  0  0  0  0
   -0.6703   -2.2841   -1.3622 C   0  0  1  0  0  0  0  0  0  0  0  0
   -0.6251   -1.1410    0.8604 C   0  0  1  0  0  0  0  0  0  0  0  0
   -2.1404   -1.8720   -1.4754 C   0  0  2  0  0  0  0  0  0  0  0  0
   -2.7508   -1.5359   -0.1095 C   0  0  1  0  0  0  0  0  0  0  0  0
    0.0961   -0.2450    1.8800 C   0  0  0  0  0  0  0  0  0  0  0  0
    2.4004   -1.1185   -1.0175 C   0  0  0  0  0  0  0  0  0  0  0  0
    3.6866   -1.2831   -0.3228 C   0  0  0  0  0  0  0  0  0  0  0  0
    4.4166   -0.1518    0.1038 C   0  0  0  0  0  0  0  0  0  0  0  0
   -4.7218   -0.6694    0.8598 C   0  0  0  0  0  0  0  0  0  0  0  0
    2.1277    0.9652    1.6356 C   0  0  0  0  0  0  0  0  0  0  0  0
    3.9359    1.2345   -0.0764 C   0  0  0  0  0  0  0  0  0  0  0  0
    2.8305    1.7673    0.6223 C   0  0  0  0  0  0  0  0  0  0  0  0
    4.1636   -2.5828   -0.1157 C   0  0  0  0  0  0  0  0  0  0  0  0
    5.6496   -0.3781    0.7405 C   0  0  0  0  0  0  0  0  0  0  0  0
   -6.0654   -0.1214    0.5454 C   0  0  0  0  0  0  0  0  0  0  0  0
    4.5819    2.0721   -1.0030 C   0  0  0  0  0  0  0  0  0  0  0  0
    2.3857    3.0760    0.3991 C   0  0  0  0  0  0  0  0  0  0  0  0
    5.3863   -2.7738    0.5221 C   0  0  0  0  0  0  0  0  0  0  0  0
    6.1285   -1.6747    0.9481 C   0  0  0  0  0  0  0  0  0  0  0  0
    4.1403    3.3791   -1.2272 C   0  0  0  0  0  0  0  0  0  0  0  0
    3.0436    3.8784   -0.5290 C   0  0  0  0  0  0  0  0  0  0  0  0
   -6.6263    0.8036    1.4023 C   0  0  0  0  0  0  0  0  0  0  0  0
   -6.7123   -0.5543   -0.5941 C   0  0  0  0  0  0  0  0  0  0  0  0
   -7.9748   -0.0400   -0.8895 C   0  0  0  0  0  0  0  0  0  0  0  0
   -7.8888    1.3178    1.1070 C   0  0  0  0  0  0  0  0  0  0  0  0
   -8.5630    0.8960   -0.0390 C   0  0  0  0  0  0  0  0  0  0  0  0
    0.0829   -0.3055   -1.0036 H   0  0  0  0  0  0  0  0  0  0  0  0
   -0.5738   -3.3008   -0.9623 H   0  0  0  0  0  0  0  0  0  0  0  0
   -0.7366   -2.1232    1.3407 H   0  0  0  0  0  0  0  0  0  0  0  0
   -2.2423   -1.0162   -2.1535 H   0  0  0  0  0  0  0  0  0  0  0  0
   -2.8614   -2.4608    0.4743 H   0  0  0  0  0  0  0  0  0  0  0  0
   -0.6202    0.2447    2.5481 H   0  0  0  0  0  0  0  0  0  0  0  0
    0.7579   -0.8755    2.4850 H   0  0  0  0  0  0  0  0  0  0  0  0
    0.8027   -2.6162   -2.6003 H   0  0  0  0  0  0  0  0  0  0  0  0
   -2.8037   -3.7163   -1.4732 H   0  0  0  0  0  0  0  0  0  0  0  0
    3.5917   -3.4432   -0.4549 H   0  0  0  0  0  0  0  0  0  0  0  0
    1.5364    3.4669    0.9542 H   0  0  0  0  0  0  0  0  0  0  0  0
   -6.0982    1.1336    2.2928 H   0  0  0  0  0  0  0  0  0  0  0  0
   -6.2769   -1.2928   -1.2615 H   0  0  0  0  0  0  0  0  0  0  0  0
    5.8709    1.4868    1.2303 H   0  0  0  0  0  0  0  0  0  0  0  0
    5.9505    2.3246   -2.3189 H   0  0  0  0  0  0  0  0  0  0  0  0
    6.7051   -3.9865    1.1746 H   0  0  0  0  0  0  0  0  0  0  0  0
    7.6972   -0.9963    1.7992 H   0  0  0  0  0  0  0  0  0  0  0  0
    4.3375    5.0340   -2.1597 H   0  0  0  0  0  0  0  0  0  0  0  0
    1.8379    5.3227   -0.1711 H   0  0  0  0  0  0  0  0  0  0  0  0
   -9.4815   -0.0041   -2.0577 H   0  0  0  0  0  0  0  0  0  0  0  0
   -7.8434    2.4023    2.6844 H   0  0  0  0  0  0  0  0  0  0  0  0
  -10.0417    2.0317    0.3696 H   0  0  0  0  0  0  0  0  0  0  0  0
  1 21  1  0  0  0  0
  1 23  1  0  0  0  0
  2 19  1  0  0  0  0
  2 25  1  0  0  0  0
  3 20  1  0  0  0  0
  3 53  1  0  0  0  0
  4 22  1  0  0  0  0
  4 54  1  0  0  0  0
  5 23  1  0  0  0  0
  5 28  1  0  0  0  0
  6 24  1  0  0  0  0
  6 29  1  0  0  0  0
  7 25  2  0  0  0  0
  8 28  2  0  0  0  0
  9 29  2  0  0  0  0
 10 33  1  0  0  0  0
 10 59  1  0  0  0  0
 11 35  1  0  0  0  0
 11 60  1  0  0  0  0
 12 37  1  0  0  0  0
 12 61  1  0  0  0  0
 13 38  1  0  0  0  0
 13 62  1  0  0  0  0
 14 39  1  0  0  0  0
 14 63  1  0  0  0  0
 15 40  1  0  0  0  0
 15 64  1  0  0  0  0
 16 43  1  0  0  0  0
 16 65  1  0  0  0  0
 17 44  1  0  0  0  0
 17 66  1  0  0  0  0
 18 45  1  0  0  0  0
 18 67  1  0  0  0  0
 19 20  1  0  0  0  0
 19 21  1  0  0  0  0
 19 46  1  0  0  0  0
 20 22  1  0  0  0  0
 20 47  1  0  0  0  0
 21 24  1  0  0  0  0
 21 48  1  0  0  0  0
 22 23  1  0  0  0  0
 22 49  1  0  0  0  0
 23 50  1  0  0  0  0
 24 51  1  0  0  0  0
 24 52  1  0  0  0  0
 25 26  1  0  0  0  0
 26 27  1  0  0  0  0
 26 32  2  0  0  0  0
 27 30  1  0  0  0  0
 27 33  2  0  0  0  0
 28 34  1  0  0  0  0
 29 31  1  0  0  0  0
 30 31  1  0  0  0  0
 30 35  2  0  0  0  0
 31 36  2  0  0  0  0
 32 37  1  0  0  0  0
 32 55  1  0  0  0  0
 33 38  1  0  0  0  0
 34 41  2  0  0  0  0
 34 42  1  0  0  0  0
 35 39  1  0  0  0  0
 36 40  1  0  0  0  0
 36 56  1  0  0  0  0
 37 38  2  0  0  0  0
 39 40  2  0  0  0  0
 41 44  1  0  0  0  0
 41 57  1  0  0  0  0
 42 43  2  0  0  0  0
 42 58  1  0  0  0  0
 43 45  1  0  0  0  0
 44 45  2  0  0  0  0
M  END
> <PUBCHEM_COMPOUND_CID>
73330

> <PUBCHEM_CONFORMER_RMSD>
1

> <PUBCHEM_CONFORMER_DIVERSEORDER>
1
13
24
6
21
22
3
18
12
14
23
8
9
19
4
17
5
25
16
11
15
20
10
2
7

> <PUBCHEM_MMFF94_PARTIAL_CHARGES>
58
1 -0.56
10 -0.53
11 -0.53
12 -0.53
13 -0.53
14 -0.53
15 -0.53
16 -0.53
17 -0.53
18 -0.53
19 0.28
2 -0.43
20 0.28
21 0.28
22 0.28
23 0.56
24 0.28
25 0.63
26 0.09
28 0.63
29 0.63
3 -0.68
31 0.09
32 -0.15
33 0.08
34 0.09
35 0.08
36 -0.15
37 0.08
38 0.08
39 0.08
4 -0.68
40 0.08
41 -0.15
42 -0.15
43 0.08
44 0.08
45 0.08
5 -0.43
53 0.4
54 0.4
55 0.15
56 0.15
57 0.15
58 0.15
59 0.45
6 -0.43
60 0.45
61 0.45
62 0.45
63 0.45
64 0.45
65 0.45
66 0.45
67 0.45
7 -0.57
8 -0.57
9 -0.57

> <PUBCHEM_EFFECTIVE_ROTOR_COUNT>
4.4

> <PUBCHEM_PHARMACOPHORE_FEATURES>
21
1 1 acceptor
1 10 donor
1 11 donor
1 12 donor
1 13 donor
1 14 donor
1 15 donor
1 16 donor
1 17 donor
1 18 donor
1 3 acceptor
1 3 donor
1 4 acceptor
1 4 donor
1 7 acceptor
1 8 acceptor
1 9 acceptor
6 1 19 20 21 22 23 rings
6 26 27 32 33 37 38 rings
6 30 31 35 36 39 40 rings
6 34 41 42 43 44 45 rings

> <PUBCHEM_HEAVY_ATOM_COUNT>
45

> <PUBCHEM_ATOM_DEF_STEREO_COUNT>
5

> <PUBCHEM_ATOM_UDEF_STEREO_COUNT>
0

> <PUBCHEM_BOND_DEF_STEREO_COUNT>
0

> <PUBCHEM_BOND_UDEF_STEREO_COUNT>
0

> <PUBCHEM_ISOTOPIC_ATOM_COUNT>
0

> <PUBCHEM_COMPONENT_COUNT>
1

> <PUBCHEM_CACTVS_TAUTO_COUNT>
998

> <PUBCHEM_CONFORMER_ID>
00011E7200000001

> <PUBCHEM_MMFF94_ENERGY>
152.1587

> <PUBCHEM_FEATURE_SELFOVERLAP>
106.632

> <PUBCHEM_SHAPE_FINGERPRINT>
10162869 55 18271232898608493511
10554248 39 18342459240233027055
11456790 92 18040432148962279274
11578080 2 17097227245200527154
11828532 37 17822866372053675187
12107698 1 18336544928622074321
12522641 24 17821723918905186451
12741549 16 17458338608192485374
13008946 267 18196930188190736328
14117953 113 18130797733021879342
14395042 70 17386585673090952028
14747281 78 17458922530387174268
15131766 46 18047473606005311540
15183329 4 17704079503786300697
15276724 80 18334014995401248181
15347591 1 18264209278549680979
15439362 3 18119528989005500184
19301679 30 17975689490675662842
19302320 297 18340781355878229609
19309040 13 17826527840015595188
20715895 44 18060424611961433703
21033648 29 16515969288788843089
21792965 106 18272939288804426257
21814621 53 17604162509719470155
22122407 14 18336841856848911729
249057 25 18059863848547117993
27425 322 18260829358114679251
335507 130 17346593089820424231
397830 11 17895769516408941035
4144715 1 17897175826003429051
44555599 121 18413394224731008249
4625314 4 18334570253716640191
513532 50 14045752508448137574
58902169 19 18272925021323423455
6058803 2 18055619866703134374
6086070 43 17274539961488077083
6371009 1 17917715673856627425
6523845 18 16370718210474609586
99344 41 17846495890763413447

> <PUBCHEM_SHAPE_MULTIPOLES>
820.43
24.39
4.37
2.03
58.4
3.8
0.21
5.23
-2.72
-8.59
1.83
0.21
-0.03
-4.26

> <PUBCHEM_SHAPE_SELFOVERLAP>
1829.722

> <PUBCHEM_SHAPE_VOLUME>
429.5

> <PUBCHEM_COORDINATE_TYPE>
2
5
10

$$$$
