9859098
  -OEChem-08252006243D

 29 30  0     1  0  0  0  0  0999 V2000
    0.3838    2.8281    0.2739 O   0  0  0  0  0  0  0  0  0  0  0  0
   -2.9592    1.3166    0.3658 O   0  0  0  0  0  0  0  0  0  0  0  0
    2.6301    1.1243   -0.9883 O   0  0  0  0  0  0  0  0  0  0  0  0
   -3.2240   -1.5287   -0.8544 O   0  0  0  0  0  0  0  0  0  0  0  0
    3.5323   -1.4498   -0.0455 O   0  0  0  0  0  0  0  0  0  0  0  0
   -0.0336   -0.7158    0.5831 N   0  0  2  0  0  0  0  0  0  0  0  0
   -0.6436    0.6302    0.4995 C   0  0  1  0  0  0  0  0  0  0  0  0
    1.2752   -0.6740   -0.0867 C   0  0  1  0  0  0  0  0  0  0  0  0
    0.3575    1.5081   -0.2428 C   0  0  2  0  0  0  0  0  0  0  0  0
   -1.9871    0.4504   -0.1954 C   0  0  1  0  0  0  0  0  0  0  0  0
    1.6793    0.7953    0.0104 C   0  0  2  0  0  0  0  0  0  0  0  0
   -0.9650   -1.6801   -0.0118 C   0  0  0  0  0  0  0  0  0  0  0  0
   -2.3214   -1.0036    0.1024 C   0  0  2  0  0  0  0  0  0  0  0  0
    2.2757   -1.6010    0.5898 C   0  0  0  0  0  0  0  0  0  0  0  0
   -0.7927    1.0104    1.5189 H   0  0  0  0  0  0  0  0  0  0  0  0
    1.2078   -0.9343   -1.1530 H   0  0  0  0  0  0  0  0  0  0  0  0
    0.1558    1.5686   -1.3191 H   0  0  0  0  0  0  0  0  0  0  0  0
   -1.9375    0.6351   -1.2750 H   0  0  0  0  0  0  0  0  0  0  0  0
    2.0969    1.0563    0.9910 H   0  0  0  0  0  0  0  0  0  0  0  0
   -0.9462   -2.6349    0.5236 H   0  0  0  0  0  0  0  0  0  0  0  0
   -0.7457   -1.8931   -1.0661 H   0  0  0  0  0  0  0  0  0  0  0  0
   -2.7550   -1.1269    1.1024 H   0  0  0  0  0  0  0  0  0  0  0  0
    1.9677   -2.6493    0.5148 H   0  0  0  0  0  0  0  0  0  0  0  0
    2.3997   -1.3582    1.6504 H   0  0  0  0  0  0  0  0  0  0  0  0
   -0.5078    3.2004    0.1638 H   0  0  0  0  0  0  0  0  0  0  0  0
   -3.8135    1.1038   -0.0467 H   0  0  0  0  0  0  0  0  0  0  0  0
    2.7667    2.0865   -0.9534 H   0  0  0  0  0  0  0  0  0  0  0  0
   -4.0440   -1.0092   -0.7988 H   0  0  0  0  0  0  0  0  0  0  0  0
    3.4254   -1.7062   -0.9774 H   0  0  0  0  0  0  0  0  0  0  0  0
  1  9  1  0  0  0  0
  1 25  1  0  0  0  0
  2 10  1  0  0  0  0
  2 26  1  0  0  0  0
  3 11  1  0  0  0  0
  3 27  1  0  0  0  0
  4 13  1  0  0  0  0
  4 28  1  0  0  0  0
  5 14  1  0  0  0  0
  5 29  1  0  0  0  0
  6  7  1  0  0  0  0
  6  8  1  0  0  0  0
  6 12  1  0  0  0  0
  7  9  1  0  0  0  0
  7 10  1  0  0  0  0
  7 15  1  0  0  0  0
  8 11  1  0  0  0  0
  8 14  1  0  0  0  0
  8 16  1  0  0  0  0
  9 11  1  0  0  0  0
  9 17  1  0  0  0  0
 10 13  1  0  0  0  0
 10 18  1  0  0  0  0
 11 19  1  0  0  0  0
 12 13  1  0  0  0  0
 12 20  1  0  0  0  0
 12 21  1  0  0  0  0
 13 22  1  0  0  0  0
 14 23  1  0  0  0  0
 14 24  1  0  0  0  0
M  END
> <PUBCHEM_COMPOUND_CID>
9859098

> <PUBCHEM_CONFORMER_RMSD>
0.6

> <PUBCHEM_CONFORMER_DIVERSEORDER>
2
4
1
3

> <PUBCHEM_MMFF94_PARTIAL_CHARGES>
19
1 -0.68
10 0.28
11 0.28
12 0.27
13 0.28
14 0.28
2 -0.68
25 0.4
26 0.4
27 0.4
28 0.4
29 0.4
3 -0.68
4 -0.68
5 -0.68
6 -0.81
7 0.27
8 0.27
9 0.28

> <PUBCHEM_EFFECTIVE_ROTOR_COUNT>
2.2

> <PUBCHEM_PHARMACOPHORE_FEATURES>
13
1 1 acceptor
1 1 donor
1 2 acceptor
1 2 donor
1 3 acceptor
1 3 donor
1 4 acceptor
1 4 donor
1 5 acceptor
1 5 donor
1 6 cation
5 6 7 10 12 13 rings
5 6 7 8 9 11 rings

> <PUBCHEM_HEAVY_ATOM_COUNT>
14

> <PUBCHEM_ATOM_DEF_STEREO_COUNT>
6

> <PUBCHEM_ATOM_UDEF_STEREO_COUNT>
0

> <PUBCHEM_BOND_DEF_STEREO_COUNT>
0

> <PUBCHEM_BOND_UDEF_STEREO_COUNT>
0

> <PUBCHEM_ISOTOPIC_ATOM_COUNT>
0

> <PUBCHEM_COMPONENT_COUNT>
1

> <PUBCHEM_CACTVS_TAUTO_COUNT>
1

> <PUBCHEM_CONFORMER_ID>
0096701A00000002

> <PUBCHEM_MMFF94_ENERGY>
36.5972

> <PUBCHEM_FEATURE_SELFOVERLAP>
66.271

> <PUBCHEM_SHAPE_FINGERPRINT>
11206711 2 18337676446198460133
12423570 1 12161728209692845608
12897270 3 18121217855417236031
12932764 1 18131077090178662523
13140716 1 18337955592954587435
14128692 85 18411697673313881082
15775835 57 18335431178977329813
16945 1 18194122051759635219
193761 8 18266178516258055115
20645477 70 18122612010830107919
21501502 16 18410294726557226359
22112679 90 18343029864870752920
2334 1 18410013260028096987
23402539 116 17985250899123139309
23419403 2 17396359201431669936
23463225 33 18337674118009752162
23552423 10 18260829301915750170
23559900 14 18343023260318834004
241688 4 18337949000185121209
2748010 2 18410570682332169507
5084963 1 17676761076157442983
528886 8 18266735792570331955
53812654 25 18343009021626762182
63268167 104 18335139816880317705
7364860 26 18197774599438458584
8030462 33 18337392759160526511

> <PUBCHEM_SHAPE_MULTIPOLES>
253.79
4.47
2.34
0.76
0.01
0.8
-0.04
-1.65
-0.61
0.31
0.07
0.02
-0.01
-0.61

> <PUBCHEM_SHAPE_SELFOVERLAP>
527.408

> <PUBCHEM_SHAPE_VOLUME>
148.4

> <PUBCHEM_COORDINATE_TYPE>
2
5
10

$$$$
