131752596
  -OEChem-08252006262D

 80 87  0     1  0  0  0  0  0999 V2000
    6.3495    2.4672    0.0000 O   0  0  0  0  0  0  0  0  0  0  0  0
    4.7126    8.6194    0.0000 O   0  0  0  0  0  0  0  0  0  0  0  0
    8.6218    5.1347    0.0000 O   0  0  0  0  0  0  0  0  0  0  0  0
    3.6642    4.2207    0.0000 O   0  0  0  0  0  0  0  0  0  0  0  0
    6.0092   10.9132    0.0000 O   0  0  0  0  0  0  0  0  0  0  0  0
    5.1432   10.4132    0.0000 O   0  0  0  0  0  0  0  0  0  0  0  0
    5.8867    5.7191    0.0000 O   0  0  0  0  0  0  0  0  0  0  0  0
    7.0046    9.8965    0.0000 O   0  0  0  0  0  0  0  0  0  0  0  0
    8.2614    2.2194    0.0000 O   0  0  0  0  0  0  0  0  0  0  0  0
    8.7221    9.5716    0.0000 O   0  0  0  0  0  0  0  0  0  0  0  0
    9.2470    6.8906    0.0000 O   0  0  0  0  0  0  0  0  0  0  0  0
    4.7866   -6.4398    0.0000 O   0  0  0  0  0  0  0  0  0  0  0  0
    2.6713    7.7848    0.0000 O   0  0  0  0  0  0  0  0  0  0  0  0
    2.8328    4.8538    0.0000 O   0  0  0  0  0  0  0  0  0  0  0  0
    2.5127    5.7426    0.0000 O   0  0  0  0  0  0  0  0  0  0  0  0
   10.4303    2.7377    0.0000 O   0  0  0  0  0  0  0  0  0  0  0  0
   13.0351   -5.7821    0.0000 O   0  0  0  0  0  0  0  0  0  0  0  0
    9.5027  -10.9587    0.0000 O   0  0  0  0  0  0  0  0  0  0  0  0
   12.7766   -9.3992    0.0000 O   0  0  0  0  0  0  0  0  0  0  0  0
   13.5652   -4.9201    0.0000 O   0  0  0  0  0  0  0  0  0  0  0  0
   16.6765   -3.0573    0.0000 O   0  0  0  0  0  0  0  0  0  0  0  0
   16.5910    0.5680    0.0000 O   0  0  0  0  0  0  0  0  0  0  0  0
    6.4870    7.9646    0.0000 C   0  0  3  0  0  0  0  0  0  0  0  0
    6.0092    9.9132    0.0000 C   0  0  0  0  0  0  0  0  0  0  0  0
    8.2987    3.8908    0.0000 C   0  0  3  0  0  0  0  0  0  0  0  0
    4.1982    3.2072    0.0000 C   0  0  3  0  0  0  0  0  0  0  0  0
    6.0511    4.7327    0.0000 C   0  0  3  0  0  0  0  0  0  0  0  0
    6.7458    8.9306    0.0000 C   0  0  3  0  0  0  0  0  0  0  0  0
    5.1667    2.5703    0.0000 C   0  0  3  0  0  0  0  0  0  0  0  0
    7.4788    2.9366    0.0000 C   0  0  3  0  0  0  0  0  0  0  0  0
    5.2660    7.0990    0.0000 C   0  0  0  0  0  0  0  0  0  0  0  0
    7.7587    7.1700    0.0000 C   0  0  0  0  0  0  0  0  0  0  0  0
    4.4370    7.6582    0.0000 C   0  0  0  0  0  0  0  0  0  0  0  0
    8.1775    8.7329    0.0000 C   0  0  0  0  0  0  0  0  0  0  0  0
    5.2094    6.0589    0.0000 C   0  0  0  0  0  0  0  0  0  0  0  0
    8.5358    7.7993    0.0000 C   0  0  0  0  0  0  0  0  0  0  0  0
    6.7171    2.4219    0.0000 C   0  0  0  0  0  0  0  0  0  0  0  0
    8.3707    6.4090    0.0000 C   0  0  0  0  0  0  0  0  0  0  0  0
    5.1924   -5.5258    0.0000 C   0  0  0  0  0  0  0  0  0  0  0  0
    3.6890    5.3705    0.0000 C   0  0  0  0  0  0  0  0  0  0  0  0
    3.4938    7.2160    0.0000 C   0  0  0  0  0  0  0  0  0  0  0  0
    4.2767    5.5950    0.0000 C   0  0  0  0  0  0  0  0  0  0  0  0
    3.4131    6.1775    0.0000 C   0  0  0  0  0  0  0  0  0  0  0  0
    7.6860   -5.8527    0.0000 C   0  0  0  0  0  0  0  0  0  0  0  0
    9.9565   -4.7711    0.0000 C   0  0  0  0  0  0  0  0  0  0  0  0
    7.4389   -8.4607    0.0000 C   0  0  0  0  0  0  0  0  0  0  0  0
   11.2739   -2.6289    0.0000 C   0  0  0  0  0  0  0  0  0  0  0  0
    9.7977    1.9632    0.0000 C   0  0  0  0  0  0  0  0  0  0  0  0
   11.2146   -0.1146    0.0000 C   0  0  0  0  0  0  0  0  0  0  0  0
   12.1373   -6.2226    0.0000 C   0  0  0  0  0  0  0  0  0  0  0  0
    9.5856   -9.9621    0.0000 C   0  0  0  0  0  0  0  0  0  0  0  0
   11.9506   -8.8355    0.0000 C   0  0  0  0  0  0  0  0  0  0  0  0
   13.5532   -3.9201    0.0000 C   0  0  0  0  0  0  0  0  0  0  0  0
   13.4305    1.2826    0.0000 C   0  0  0  0  0  0  0  0  0  0  0  0
   15.8008   -2.5745    0.0000 C   0  0  0  0  0  0  0  0  0  0  0  0
   15.7390    0.0444    0.0000 C   0  0  0  0  0  0  0  0  0  0  0  0
    6.9893    8.3281    0.0000 H   0  0  0  0  0  0  0  0  0  0  0  0
    8.8481    3.6034    0.0000 H   0  0  0  0  0  0  0  0  0  0  0  0
    3.7390    2.7905    0.0000 H   0  0  0  0  0  0  0  0  0  0  0  0
    6.5298    5.1268    0.0000 H   0  0  0  0  0  0  0  0  0  0  0  0
    4.9608    1.9855    0.0000 H   0  0  0  0  0  0  0  0  0  0  0  0
    8.0268    2.6465    0.0000 H   0  0  0  0  0  0  0  0  0  0  0  0
    9.1347    7.6388    0.0000 H   0  0  0  0  0  0  0  0  0  0  0  0
    7.0885    2.9183    0.0000 H   0  0  0  0  0  0  0  0  0  0  0  0
    6.6473    1.8058    0.0000 H   0  0  0  0  0  0  0  0  0  0  0  0
    6.5462   11.2232    0.0000 H   0  0  0  0  0  0  0  0  0  0  0  0
    4.6062   10.1032    0.0000 H   0  0  0  0  0  0  0  0  0  0  0  0
    6.3653    6.1132    0.0000 H   0  0  0  0  0  0  0  0  0  0  0  0
    4.2358    4.9764    0.0000 H   0  0  0  0  0  0  0  0  0  0  0  0
    7.6035   10.0569    0.0000 H   0  0  0  0  0  0  0  0  0  0  0  0
    6.8761   -8.7208    0.0000 H   0  0  0  0  0  0  0  0  0  0  0  0
    2.1109    7.5194    0.0000 H   0  0  0  0  0  0  0  0  0  0  0  0
    2.0000    6.0913    0.0000 H   0  0  0  0  0  0  0  0  0  0  0  0
   13.4087    1.9022    0.0000 H   0  0  0  0  0  0  0  0  0  0  0  0
   13.5499   -6.1276    0.0000 H   0  0  0  0  0  0  0  0  0  0  0  0
    8.9420  -11.2232    0.0000 H   0  0  0  0  0  0  0  0  0  0  0  0
   12.7300  -10.0174    0.0000 H   0  0  0  0  0  0  0  0  0  0  0  0
   14.1058   -5.2236    0.0000 H   0  0  0  0  0  0  0  0  0  0  0  0
   17.2072   -2.7368    0.0000 H   0  0  0  0  0  0  0  0  0  0  0  0
   16.5740    1.1877    0.0000 H   0  0  0  0  0  0  0  0  0  0  0  0
  1 29  1  0  0  0  0
  1 30  1  0  0  0  0
  2 28  1  0  0  0  0
  2 33  1  0  0  0  0
  3 25  1  0  0  0  0
  3 38  1  0  0  0  0
  4 26  1  0  0  0  0
  4 40  1  0  0  0  0
  5 24  1  0  0  0  0
  5 66  1  0  0  0  0
  6 24  1  0  0  0  0
  6 67  1  0  0  0  0
  7 27  1  0  0  0  0
  7 68  1  0  0  0  0
  8 28  1  0  0  0  0
  8 70  1  0  0  0  0
  9 37  1  0  0  0  0
  9 48  1  0  0  0  0
 10 34  2  0  0  0  0
 11 38  2  0  0  0  0
 12 39  2  0  0  0  0
 13 41  1  0  0  0  0
 13 72  1  0  0  0  0
 14 40  2  0  0  0  0
 15 43  1  0  0  0  0
 15 73  1  0  0  0  0
 16 48  2  0  0  0  0
 17 50  1  0  0  0  0
 17 75  1  0  0  0  0
 18 51  1  0  0  0  0
 18 76  1  0  0  0  0
 19 52  1  0  0  0  0
 19 77  1  0  0  0  0
 20 53  1  0  0  0  0
 20 78  1  0  0  0  0
 21 55  1  0  0  0  0
 21 79  1  0  0  0  0
 22 56  1  0  0  0  0
 22 80  1  0  0  0  0
 23 24  1  0  0  0  0
 23 31  1  0  0  0  0
 23 32  1  0  0  0  0
 23 57  1  0  0  0  0
 24 28  1  0  0  0  0
 25 27  1  0  0  0  0
 25 30  1  0  0  0  0
 25 58  1  0  0  0  0
 26 27  1  0  0  0  0
 26 29  1  0  0  0  0
 26 59  1  0  0  0  0
 27 60  1  0  0  0  0
 28 34  1  0  0  0  0
 29 37  1  0  0  0  0
 29 61  1  0  0  0  0
 30 39  1  0  0  0  0
 30 62  1  0  0  0  0
 31 33  2  0  0  0  0
 31 35  1  0  0  0  0
 32 36  2  0  0  0  0
 32 38  1  0  0  0  0
 33 41  1  0  0  0  0
 34 36  1  0  0  0  0
 35 40  1  0  0  0  0
 35 42  2  0  0  0  0
 36 63  1  0  0  0  0
 37 64  1  0  0  0  0
 37 65  1  0  0  0  0
 39 44  1  0  0  0  0
 41 43  2  0  0  0  0
 42 43  1  0  0  0  0
 42 69  1  0  0  0  0
 44 45  1  0  0  0  0
 44 46  2  0  0  0  0
 45 47  1  0  0  0  0
 45 50  2  0  0  0  0
 46 51  1  0  0  0  0
 46 71  1  0  0  0  0
 47 49  1  0  0  0  0
 47 53  2  0  0  0  0
 48 49  1  0  0  0  0
 49 54  2  0  0  0  0
 50 52  1  0  0  0  0
 51 52  2  0  0  0  0
 53 55  1  0  0  0  0
 54 56  1  0  0  0  0
 54 74  1  0  0  0  0
 55 56  2  0  0  0  0
M  END
> <PUBCHEM_COMPOUND_CID>
131752596

> <PUBCHEM_COMPOUND_CANONICALIZED>
1

> <PUBCHEM_CACTVS_COMPLEXITY>
1720

> <PUBCHEM_CACTVS_HBOND_ACCEPTOR>
22

> <PUBCHEM_CACTVS_HBOND_DONOR>
12

> <PUBCHEM_CACTVS_ROTATABLE_BOND>
0

> <PUBCHEM_CACTVS_SUBSKEYS>
AAADceB8PgAAAAAAAAAAAAAAAAAAAAAAAAA0aMECAAAQAACRUAAAGgAACAAADRSgmAIwDoAABgCIAqDSCAICCAAkIAAAiAFGiMgdNzaGNR6CeSOl4BUPuYfK7PzOoAABCAAYQABAAAIQADCAAAAAAAAAAA==

> <PUBCHEM_IUPAC_OPENEYE_NAME>
6,7,8,11,12,13,25,26,30,30,31,37-dodecahydroxy-17,21,36,38,39-pentaoxaoctacyclo[18.16.1.12,19.127,31.04,9.010,15.023,28.029,34]nonatriaconta-4,6,8,10,12,14,23,25,27,33-decaene-3,16,22,32,35-pentone

> <PUBCHEM_IUPAC_CAS_NAME>
6,7,8,11,12,13,25,26,30,30,31,37-dodecahydroxy-17,21,36,38,39-pentaoxaoctacyclo[18.16.1.12,19.127,31.04,9.010,15.023,28.029,34]nonatriaconta-4,6,8,10,12,14,23,25,27,33-decaene-3,16,22,32,35-pentone

> <PUBCHEM_IUPAC_NAME_MARKUP>
6,7,8,11,12,13,25,26,30,30,31,37-dodecahydroxy-17,21,36,38,39-pentaoxaoctacyclo[18.16.1.1<SUP>2,19</SUP>.1<SUP>27,31</SUP>.0<SUP>4,9</SUP>.0<SUP>10,15</SUP>.0<SUP>23,28</SUP>.0<SUP>29,34</SUP>]nonatriaconta-4,6,8,10,12,14,23,25,27,33-decaene-3,16,22,32,35-pentone

> <PUBCHEM_IUPAC_NAME>
6,7,8,11,12,13,25,26,30,30,31,37-dodecahydroxy-17,21,36,38,39-pentaoxaoctacyclo[18.16.1.12,19.127,31.04,9.010,15.023,28.029,34]nonatriaconta-4,6,8,10,12,14,23,25,27,33-decaene-3,16,22,32,35-pentone

> <PUBCHEM_IUPAC_SYSTEMATIC_NAME>
6,7,8,11,12,13,25,26,30,30,31,37-dodecakis(oxidanyl)-17,21,36,38,39-pentaoxaoctacyclo[18.16.1.12,19.127,31.04,9.010,15.023,28.029,34]nonatriaconta-4,6,8,10,12,14,23,25,27,33-decaene-3,16,22,32,35-pentone

> <PUBCHEM_IUPAC_TRADITIONAL_NAME>
6,7,8,11,12,13,25,26,30,30,31,37-dodecahydroxy-17,21,36,38,39-pentaoxaoctacyclo[18.16.1.12,19.127,31.04,9.010,15.023,28.029,34]nonatriaconta-4,6,8,10,12,14,23,25,27,33-decaene-3,16,22,32,35-pentone

> <PUBCHEM_IUPAC_INCHI>
InChI=1S/C34H24O22/c35-10-1-6-15(23(43)20(10)40)16-7(2-11(36)21(41)24(16)44)30(46)52-5-13-26-25(45)29(28(53-13)19(6)39)55-32(48)9-4-14(38)34(51)33(49,50)18(9)17-8(31(47)54-26)3-12(37)22(42)27(17)56-34/h1-4,13,18,25-26,28-29,35-37,40-45,49-51H,5H2

> <PUBCHEM_IUPAC_INCHIKEY>
BEAQEKRAXFQCBO-UHFFFAOYSA-N

> <PUBCHEM_XLOGP3_AA>
-1.9

> <PUBCHEM_EXACT_MASS>
784.075922

> <PUBCHEM_MOLECULAR_FORMULA>
C34H24O22

> <PUBCHEM_MOLECULAR_WEIGHT>
784.5

> <PUBCHEM_OPENEYE_CAN_SMILES>
C1C2C3C(C(C(O2)C(=O)C4=CC(=C(C(=C4C5=C(C(=C(C=C5C(=O)O1)O)O)O)O)O)O)OC(=O)C6=CC(=O)C7(C(C6C8=C(O7)C(=C(C=C8C(=O)O3)O)O)(O)O)O)O

> <PUBCHEM_OPENEYE_ISO_SMILES>
C1C2C3C(C(C(O2)C(=O)C4=CC(=C(C(=C4C5=C(C(=C(C=C5C(=O)O1)O)O)O)O)O)O)OC(=O)C6=CC(=O)C7(C(C6C8=C(O7)C(=C(C=C8C(=O)O3)O)O)(O)O)O)O

> <PUBCHEM_CACTVS_TPSA>
374

> <PUBCHEM_MONOISOTOPIC_WEIGHT>
784.075922

> <PUBCHEM_TOTAL_CHARGE>
0

> <PUBCHEM_HEAVY_ATOM_COUNT>
56

> <PUBCHEM_ATOM_DEF_STEREO_COUNT>
0

> <PUBCHEM_ATOM_UDEF_STEREO_COUNT>
7

> <PUBCHEM_BOND_DEF_STEREO_COUNT>
0

> <PUBCHEM_BOND_UDEF_STEREO_COUNT>
0

> <PUBCHEM_ISOTOPIC_ATOM_COUNT>
0

> <PUBCHEM_COMPONENT_COUNT>
1

> <PUBCHEM_CACTVS_TAUTO_COUNT>
-1

> <PUBCHEM_COORDINATE_TYPE>
1
5
255

> <PUBCHEM_BONDANNOTATIONS>
23  24  3
29  37  3
25  3  3
30  39  3
31  33  8
31  35  8
33  41  8
35  42  8
26  4  3
41  43  8
42  43  8
44  45  8
44  46  8
45  50  8
46  51  8
47  49  8
47  53  8
49  54  8
50  52  8
51  52  8
53  55  8
54  56  8
55  56  8
27  7  3
28  8  3

$$$$
