10862351
  -OEChem-09012003103D

 60 61  0     1  0  0  0  0  0999 V2000
   -1.0331   -0.0243    0.5489 O   0  0  0  0  0  0  0  0  0  0  0  0
    3.3569   -1.5564    1.1950 O   0  0  0  0  0  0  0  0  0  0  0  0
    0.8637   -2.1614    0.2358 O   0  0  0  0  0  0  0  0  0  0  0  0
   -3.0424    1.1204    0.2388 O   0  0  0  0  0  0  0  0  0  0  0  0
   -2.2624   -2.3926   -0.3934 O   0  0  0  0  0  0  0  0  0  0  0  0
   -5.1691   -2.3897    0.0881 O   0  0  0  0  0  0  0  0  0  0  0  0
   -6.3562    0.0540   -0.8992 O   0  0  0  0  0  0  0  0  0  0  0  0
   -4.0942    3.5891   -0.3577 O   0  0  0  0  0  0  0  0  0  0  0  0
    5.5907    1.7844   -1.6987 O   0  0  0  0  0  0  0  0  0  0  0  0
    1.9043    0.3971    1.5828 C   0  0  0  0  0  0  0  0  0  0  0  0
    2.6433   -0.5095    0.5169 C   0  0  2  0  0  0  0  0  0  0  0  0
    1.6539   -1.2040   -0.4827 C   0  0  2  0  0  0  0  0  0  0  0  0
    0.9180    1.3663    0.8702 C   0  0  0  0  0  0  0  0  0  0  0  0
   -0.0279    0.7116   -0.1394 C   0  0  1  0  0  0  0  0  0  0  0  0
    0.7036   -0.1827   -1.1438 C   0  0  0  0  0  0  0  0  0  0  0  0
    2.9096    1.2705    2.3875 C   0  0  0  0  0  0  0  0  0  0  0  0
    1.1612   -0.4344    2.6591 C   0  0  0  0  0  0  0  0  0  0  0  0
    2.3767   -2.0179   -1.5737 C   0  0  0  0  0  0  0  0  0  0  0  0
    3.6766    0.2865   -0.2529 C   0  0  0  0  0  0  0  0  0  0  0  0
   -2.2693   -0.0076   -0.1643 C   0  0  2  0  0  0  0  0  0  0  0  0
   -3.0118   -1.3062    0.1501 C   0  0  1  0  0  0  0  0  0  0  0  0
   -4.4155   -1.3048   -0.4554 C   0  0  2  0  0  0  0  0  0  0  0  0
   -5.1559   -0.0065   -0.1332 C   0  0  1  0  0  0  0  0  0  0  0  0
   -4.2860    1.2099   -0.4587 C   0  0  1  0  0  0  0  0  0  0  0  0
    4.9817   -0.0143   -0.2605 C   0  0  0  0  0  0  0  0  0  0  0  0
   -4.9571    2.5132   -0.0371 C   0  0  0  0  0  0  0  0  0  0  0  0
    5.9466    0.8115   -1.0375 C   0  0  0  0  0  0  0  0  0  0  0  0
    7.3941    0.3978   -0.9853 C   0  0  0  0  0  0  0  0  0  0  0  0
    1.4923    2.1381    0.3410 H   0  0  0  0  0  0  0  0  0  0  0  0
    0.3220    1.8936    1.6272 H   0  0  0  0  0  0  0  0  0  0  0  0
   -0.5037    1.5357   -0.6897 H   0  0  0  0  0  0  0  0  0  0  0  0
   -0.0316   -0.7304   -1.7457 H   0  0  0  0  0  0  0  0  0  0  0  0
    1.2691    0.4555   -1.8338 H   0  0  0  0  0  0  0  0  0  0  0  0
    2.3859    1.8695    3.1427 H   0  0  0  0  0  0  0  0  0  0  0  0
    3.6509    0.6622    2.9156 H   0  0  0  0  0  0  0  0  0  0  0  0
    3.4466    1.9798    1.7489 H   0  0  0  0  0  0  0  0  0  0  0  0
    0.3820   -1.0800    2.2553 H   0  0  0  0  0  0  0  0  0  0  0  0
    1.8530   -1.0707    3.2220 H   0  0  0  0  0  0  0  0  0  0  0  0
    0.6698    0.2237    3.3863 H   0  0  0  0  0  0  0  0  0  0  0  0
    2.9426   -1.3841   -2.2632 H   0  0  0  0  0  0  0  0  0  0  0  0
    3.0586   -2.7552   -1.1355 H   0  0  0  0  0  0  0  0  0  0  0  0
    1.6518   -2.5901   -2.1655 H   0  0  0  0  0  0  0  0  0  0  0  0
    3.3201    1.1416   -0.8211 H   0  0  0  0  0  0  0  0  0  0  0  0
   -2.0844    0.0480   -1.2459 H   0  0  0  0  0  0  0  0  0  0  0  0
    3.8553   -1.1753    1.9362 H   0  0  0  0  0  0  0  0  0  0  0  0
    1.4736   -2.7759    0.6789 H   0  0  0  0  0  0  0  0  0  0  0  0
   -3.0652   -1.4685    1.2332 H   0  0  0  0  0  0  0  0  0  0  0  0
   -4.3686   -1.4724   -1.5385 H   0  0  0  0  0  0  0  0  0  0  0  0
   -5.4421   -0.0036    0.9257 H   0  0  0  0  0  0  0  0  0  0  0  0
   -4.0782    1.2694   -1.5359 H   0  0  0  0  0  0  0  0  0  0  0  0
    5.4008   -0.8561    0.2771 H   0  0  0  0  0  0  0  0  0  0  0  0
   -5.1376    2.5402    1.0427 H   0  0  0  0  0  0  0  0  0  0  0  0
   -5.9069    2.6665   -0.5572 H   0  0  0  0  0  0  0  0  0  0  0  0
   -2.1998   -2.2650   -1.3553 H   0  0  0  0  0  0  0  0  0  0  0  0
   -6.0578   -2.3528   -0.3054 H   0  0  0  0  0  0  0  0  0  0  0  0
   -6.1118    0.0591   -1.8404 H   0  0  0  0  0  0  0  0  0  0  0  0
    7.5919   -0.2523   -0.1288 H   0  0  0  0  0  0  0  0  0  0  0  0
    8.0181    1.2898   -0.8792 H   0  0  0  0  0  0  0  0  0  0  0  0
    7.6520   -0.1301   -1.9068 H   0  0  0  0  0  0  0  0  0  0  0  0
   -3.2524    3.4394    0.1058 H   0  0  0  0  0  0  0  0  0  0  0  0
  1 14  1  0  0  0  0
  1 20  1  0  0  0  0
  2 11  1  0  0  0  0
  2 45  1  0  0  0  0
  3 12  1  0  0  0  0
  3 46  1  0  0  0  0
  4 20  1  0  0  0  0
  4 24  1  0  0  0  0
  5 21  1  0  0  0  0
  5 54  1  0  0  0  0
  6 22  1  0  0  0  0
  6 55  1  0  0  0  0
  7 23  1  0  0  0  0
  7 56  1  0  0  0  0
  8 26  1  0  0  0  0
  8 60  1  0  0  0  0
  9 27  2  0  0  0  0
 10 11  1  0  0  0  0
 10 13  1  0  0  0  0
 10 16  1  0  0  0  0
 10 17  1  0  0  0  0
 11 12  1  0  0  0  0
 11 19  1  0  0  0  0
 12 15  1  0  0  0  0
 12 18  1  0  0  0  0
 13 14  1  0  0  0  0
 13 29  1  0  0  0  0
 13 30  1  0  0  0  0
 14 15  1  0  0  0  0
 14 31  1  0  0  0  0
 15 32  1  0  0  0  0
 15 33  1  0  0  0  0
 16 34  1  0  0  0  0
 16 35  1  0  0  0  0
 16 36  1  0  0  0  0
 17 37  1  0  0  0  0
 17 38  1  0  0  0  0
 17 39  1  0  0  0  0
 18 40  1  0  0  0  0
 18 41  1  0  0  0  0
 18 42  1  0  0  0  0
 19 25  2  0  0  0  0
 19 43  1  0  0  0  0
 20 21  1  0  0  0  0
 20 44  1  0  0  0  0
 21 22  1  0  0  0  0
 21 47  1  0  0  0  0
 22 23  1  0  0  0  0
 22 48  1  0  0  0  0
 23 24  1  0  0  0  0
 23 49  1  0  0  0  0
 24 26  1  0  0  0  0
 24 50  1  0  0  0  0
 25 27  1  0  0  0  0
 25 51  1  0  0  0  0
 26 52  1  0  0  0  0
 26 53  1  0  0  0  0
 27 28  1  0  0  0  0
 28 57  1  0  0  0  0
 28 58  1  0  0  0  0
 28 59  1  0  0  0  0
M  END
> <PUBCHEM_COMPOUND_CID>
10862351

> <PUBCHEM_CONFORMER_RMSD>
0.8

> <PUBCHEM_CONFORMER_DIVERSEORDER>
1
7
35
71
18
22
64
77
63
33
6
80
27
51
32
49
9
34
53
46
37
48
13
78
54
76
57
21
52
75
59
67
66
62
70
8
73
42
74
50
12
10
60
31
72
47
43
58
68
61
30
20
29
69
41
19
14
36
2
44
24
79
4
25
16
40
45
5
17
3
65
28
38
56
55
23
15
26
39
11

> <PUBCHEM_MMFF94_PARTIAL_CHARGES>
30
1 -0.56
11 0.42
12 0.28
14 0.28
19 -0.29
2 -0.68
20 0.56
21 0.28
22 0.28
23 0.28
24 0.28
25 -0.14
26 0.28
27 0.49
28 0.06
3 -0.68
4 -0.56
43 0.15
45 0.4
46 0.4
5 -0.68
51 0.15
54 0.4
55 0.4
56 0.4
6 -0.68
60 0.4
7 -0.68
8 -0.68
9 -0.57

> <PUBCHEM_EFFECTIVE_ROTOR_COUNT>
7.4

> <PUBCHEM_PHARMACOPHORE_FEATURES>
18
1 1 acceptor
1 2 acceptor
1 2 donor
1 3 acceptor
1 3 donor
1 4 acceptor
1 5 acceptor
1 5 donor
1 6 acceptor
1 6 donor
1 7 acceptor
1 7 donor
1 8 acceptor
1 8 donor
1 9 acceptor
3 10 16 17 hydrophobe
6 10 11 12 13 14 15 rings
6 4 20 21 22 23 24 rings

> <PUBCHEM_HEAVY_ATOM_COUNT>
28

> <PUBCHEM_ATOM_DEF_STEREO_COUNT>
8

> <PUBCHEM_ATOM_UDEF_STEREO_COUNT>
0

> <PUBCHEM_BOND_DEF_STEREO_COUNT>
1

> <PUBCHEM_BOND_UDEF_STEREO_COUNT>
0

> <PUBCHEM_ISOTOPIC_ATOM_COUNT>
0

> <PUBCHEM_COMPONENT_COUNT>
1

> <PUBCHEM_CACTVS_TAUTO_COUNT>
2

> <PUBCHEM_CONFORMER_ID>
00A5BF0F00000001

> <PUBCHEM_MMFF94_ENERGY>
94.2129

> <PUBCHEM_FEATURE_SELFOVERLAP>
91.43

> <PUBCHEM_SHAPE_FINGERPRINT>
10366900 7 17917708007055394427
10595046 47 18260266356299396630
10670039 82 18408882936416157669
11595378 159 17749942259658117857
12011746 2 17846500348216617854
12107183 9 17685202885885541099
12166972 35 13110956539627531043
12236239 1 17603580846076743355
12403259 415 17988917886355411369
12596602 18 17385723599923376305
12788726 201 18058450906900938248
13583140 156 17846770802760615951
13668630 136 15913322516382403301
13690498 29 18200592634966719559
14856354 85 18338240461267023127
15183329 4 18409731755355971284
15238133 3 18128243507138348896
1601671 61 18272088275515065940
17349148 13 13254786945902414917
18608769 82 18339369668794886683
18681886 176 18338795731861064700
19784866 140 16486986068049563574
20511986 3 17821997718838310999
20645477 70 16558743529256005785
21033648 29 17631996599353116873
21521721 280 17274545442467596938
21637258 2 13326574000324804004
21792961 116 17918002642276104366
22224240 67 14345794993957246584
22393880 68 17917703625914276910
23557571 272 18341891870979888117
23559900 14 18272646887688596897
23569914 152 15476217990451650884
2838139 119 18113908190948259404
34797466 226 18130237037773495932
350125 39 18412266134385498393
4325135 7 18186239537004726644
4340502 62 15719391750559946906
495365 180 17130681947579950715
5265222 85 18199754811601495686
59755656 215 17988925578193361078
6823239 73 18201430423961226824
7808743 9 18335421218916794645
9709674 26 18201712938937116575

> <PUBCHEM_SHAPE_MULTIPOLES>
523.4
14.87
2.47
1.65
1.67
0.47
0.98
3.88
-6.57
-3.11
-0.37
2.26
0.28
0.25

> <PUBCHEM_SHAPE_SELFOVERLAP>
1073.212

> <PUBCHEM_SHAPE_VOLUME>
297.5

> <PUBCHEM_COORDINATE_TYPE>
2
5
10

$$$$
