102511795
  -OEChem-08212012363D

 82 86  0     1  0  0  0  0  0999 V2000
    3.8362   -1.1462    0.0095 O   0  0  0  0  0  0  0  0  0  0  0  0
   -3.5028   -2.0873    1.0245 O   0  0  0  0  0  0  0  0  0  0  0  0
    1.3819   -0.3999   -2.1939 O   0  0  0  0  0  0  0  0  0  0  0  0
   -2.6003   -3.4484    2.5735 O   0  0  0  0  0  0  0  0  0  0  0  0
    1.7515    5.2867    0.2630 O   0  0  0  0  0  0  0  0  0  0  0  0
    3.1303    4.0614   -1.1229 O   0  0  0  0  0  0  0  0  0  0  0  0
   -5.8783   -0.4757   -2.5476 O   0  0  0  0  0  0  0  0  0  0  0  0
    3.7131   -3.3423    0.6900 O   0  0  0  0  0  0  0  0  0  0  0  0
   -3.6222   -0.0576   -2.6964 O   0  0  0  0  0  0  0  0  0  0  0  0
   -7.7472    0.0221   -1.1914 O   0  0  0  0  0  0  0  0  0  0  0  0
    1.0916    1.3374   -0.5117 C   0  0  1  0  0  0  0  0  0  0  0  0
   -0.2906    1.3124    0.2537 C   0  0  2  0  0  0  0  0  0  0  0  0
    2.3695    1.7110    0.3608 C   0  0  2  0  0  0  0  0  0  0  0  0
    2.8723    0.6479    1.4212 C   0  0  0  0  0  0  0  0  0  0  0  0
   -0.5848    0.0228    1.0302 C   0  0  0  0  0  0  0  0  0  0  0  0
   -3.0995    0.3752    1.0167 C   0  0  1  0  0  0  0  0  0  0  0  0
   -1.8503    0.0911    1.8950 C   0  0  1  0  0  0  0  0  0  0  0  0
    1.4552   -1.1085    0.0920 C   0  0  2  0  0  0  0  0  0  0  0  0
    2.7382   -0.8152    0.8726 C   0  0  1  0  0  0  0  0  0  0  0  0
   -1.5143    1.5517   -0.6628 C   0  0  0  0  0  0  0  0  0  0  0  0
    1.3157   -0.0847   -1.0083 C   0  0  0  0  0  0  0  0  0  0  0  0
   -2.8284    1.6114    0.1216 C   0  0  0  0  0  0  0  0  0  0  0  0
    0.2213   -1.0520    0.9342 C   0  0  0  0  0  0  0  0  0  0  0  0
    1.0592    2.2857   -1.7374 C   0  0  0  0  0  0  0  0  0  0  0  0
   -3.3729   -0.9083    0.1901 C   0  0  2  0  0  0  0  0  0  0  0  0
    2.2719    3.1316    0.9539 C   0  0  0  0  0  0  0  0  0  0  0  0
   -2.1152   -1.1211    2.7924 C   0  0  0  0  0  0  0  0  0  0  0  0
    4.3791    0.9089    1.7264 C   0  0  0  0  0  0  0  0  0  0  0  0
    2.1633    0.7891    2.7902 C   0  0  0  0  0  0  0  0  0  0  0  0
   -4.3210    0.7211    1.9080 C   0  0  0  0  0  0  0  0  0  0  0  0
   -2.7201   -2.3190    2.1036 C   0  0  0  0  0  0  0  0  0  0  0  0
   -4.6027   -0.8475   -0.6624 C   0  0  0  0  0  0  0  0  0  0  0  0
    2.4601    4.1786   -0.1063 C   0  0  0  0  0  0  0  0  0  0  0  0
    4.2170   -2.4511    0.0213 C   0  0  0  0  0  0  0  0  0  0  0  0
   -5.8643   -1.1441   -0.3611 C   0  0  0  0  0  0  0  0  0  0  0  0
   -4.6021   -0.4141   -2.0650 C   0  0  0  0  0  0  0  0  0  0  0  0
   -6.7573   -0.9385   -1.5179 C   0  0  2  0  0  0  0  0  0  0  0  0
    5.3664   -2.6375   -0.9156 C   0  0  0  0  0  0  0  0  0  0  0  0
    1.8207    6.3924   -0.6432 C   0  0  0  0  0  0  0  0  0  0  0  0
    6.2805   -1.4739   -1.1612 C   0  0  0  0  0  0  0  0  0  0  0  0
    5.4639   -3.8499   -1.4915 C   0  0  0  0  0  0  0  0  0  0  0  0
    6.5155   -4.3158   -2.4480 C   0  0  0  0  0  0  0  0  0  0  0  0
   -0.2878    2.1315    0.9800 H   0  0  0  0  0  0  0  0  0  0  0  0
    3.1915    1.7262   -0.3732 H   0  0  0  0  0  0  0  0  0  0  0  0
   -1.6945    0.9433    2.5737 H   0  0  0  0  0  0  0  0  0  0  0  0
    1.4991   -2.0919   -0.3919 H   0  0  0  0  0  0  0  0  0  0  0  0
    2.7771   -1.4800    1.7472 H   0  0  0  0  0  0  0  0  0  0  0  0
   -1.5633    0.7752   -1.4333 H   0  0  0  0  0  0  0  0  0  0  0  0
   -1.4223    2.5113   -1.1827 H   0  0  0  0  0  0  0  0  0  0  0  0
   -2.7903    2.5062    0.7595 H   0  0  0  0  0  0  0  0  0  0  0  0
   -3.6576    1.7862   -0.5729 H   0  0  0  0  0  0  0  0  0  0  0  0
    0.0117   -1.9575    1.4936 H   0  0  0  0  0  0  0  0  0  0  0  0
    0.6994    3.2877   -1.4962 H   0  0  0  0  0  0  0  0  0  0  0  0
    0.3713    1.9044   -2.5039 H   0  0  0  0  0  0  0  0  0  0  0  0
    2.0254    2.3257   -2.2502 H   0  0  0  0  0  0  0  0  0  0  0  0
   -2.5304   -1.1308   -0.4751 H   0  0  0  0  0  0  0  0  0  0  0  0
    3.0663    3.3214    1.6819 H   0  0  0  0  0  0  0  0  0  0  0  0
    1.3237    3.2859    1.4740 H   0  0  0  0  0  0  0  0  0  0  0  0
   -2.8117   -0.8408    3.5923 H   0  0  0  0  0  0  0  0  0  0  0  0
   -1.1937   -1.4345    3.2969 H   0  0  0  0  0  0  0  0  0  0  0  0
    4.9792    0.9442    0.8107 H   0  0  0  0  0  0  0  0  0  0  0  0
    2.4712    1.7039    3.3100 H   0  0  0  0  0  0  0  0  0  0  0  0
    1.0799    0.8368    2.7205 H   0  0  0  0  0  0  0  0  0  0  0  0
    4.5413    1.8550    2.2520 H   0  0  0  0  0  0  0  0  0  0  0  0
    4.7887    0.1154    2.3629 H   0  0  0  0  0  0  0  0  0  0  0  0
    2.4177   -0.0446    3.4549 H   0  0  0  0  0  0  0  0  0  0  0  0
   -4.6992   -0.1440    2.4613 H   0  0  0  0  0  0  0  0  0  0  0  0
   -5.1517    1.1199    1.3152 H   0  0  0  0  0  0  0  0  0  0  0  0
   -4.0587    1.4922    2.6419 H   0  0  0  0  0  0  0  0  0  0  0  0
   -6.2018   -1.4969    0.6031 H   0  0  0  0  0  0  0  0  0  0  0  0
   -7.2316   -1.8748   -1.8302 H   0  0  0  0  0  0  0  0  0  0  0  0
    1.2151    7.2056   -0.2342 H   0  0  0  0  0  0  0  0  0  0  0  0
    1.4143    6.1081   -1.6185 H   0  0  0  0  0  0  0  0  0  0  0  0
    2.8541    6.7382   -0.7403 H   0  0  0  0  0  0  0  0  0  0  0  0
    7.2284   -1.7616   -1.6214 H   0  0  0  0  0  0  0  0  0  0  0  0
    5.7962   -0.7378   -1.8110 H   0  0  0  0  0  0  0  0  0  0  0  0
    6.5340   -0.9853   -0.2139 H   0  0  0  0  0  0  0  0  0  0  0  0
   -8.4964   -0.1219   -1.7941 H   0  0  0  0  0  0  0  0  0  0  0  0
    4.7275   -4.6147   -1.2490 H   0  0  0  0  0  0  0  0  0  0  0  0
    6.0366   -4.7276   -3.3423 H   0  0  0  0  0  0  0  0  0  0  0  0
    7.1102   -5.1098   -1.9859 H   0  0  0  0  0  0  0  0  0  0  0  0
    7.1943   -3.5269   -2.7767 H   0  0  0  0  0  0  0  0  0  0  0  0
  1 19  1  0  0  0  0
  1 34  1  0  0  0  0
  2 25  1  0  0  0  0
  2 31  1  0  0  0  0
  3 21  2  0  0  0  0
  4 31  2  0  0  0  0
  5 33  1  0  0  0  0
  5 39  1  0  0  0  0
  6 33  2  0  0  0  0
  7 36  1  0  0  0  0
  7 37  1  0  0  0  0
  8 34  2  0  0  0  0
  9 36  2  0  0  0  0
 10 37  1  0  0  0  0
 10 78  1  0  0  0  0
 11 12  1  0  0  0  0
 11 13  1  0  0  0  0
 11 21  1  0  0  0  0
 11 24  1  0  0  0  0
 12 15  1  0  0  0  0
 12 20  1  0  0  0  0
 12 43  1  0  0  0  0
 13 14  1  0  0  0  0
 13 26  1  0  0  0  0
 13 44  1  0  0  0  0
 14 19  1  0  0  0  0
 14 28  1  0  0  0  0
 14 29  1  0  0  0  0
 15 17  1  0  0  0  0
 15 23  2  0  0  0  0
 16 17  1  0  0  0  0
 16 22  1  0  0  0  0
 16 25  1  0  0  0  0
 16 30  1  0  0  0  0
 17 27  1  0  0  0  0
 17 45  1  0  0  0  0
 18 19  1  0  0  0  0
 18 21  1  0  0  0  0
 18 23  1  0  0  0  0
 18 46  1  0  0  0  0
 19 47  1  0  0  0  0
 20 22  1  0  0  0  0
 20 48  1  0  0  0  0
 20 49  1  0  0  0  0
 22 50  1  0  0  0  0
 22 51  1  0  0  0  0
 23 52  1  0  0  0  0
 24 53  1  0  0  0  0
 24 54  1  0  0  0  0
 24 55  1  0  0  0  0
 25 32  1  0  0  0  0
 25 56  1  0  0  0  0
 26 33  1  0  0  0  0
 26 57  1  0  0  0  0
 26 58  1  0  0  0  0
 27 31  1  0  0  0  0
 27 59  1  0  0  0  0
 27 60  1  0  0  0  0
 28 61  1  0  0  0  0
 28 64  1  0  0  0  0
 28 65  1  0  0  0  0
 29 62  1  0  0  0  0
 29 63  1  0  0  0  0
 29 66  1  0  0  0  0
 30 67  1  0  0  0  0
 30 68  1  0  0  0  0
 30 69  1  0  0  0  0
 32 35  2  0  0  0  0
 32 36  1  0  0  0  0
 34 38  1  0  0  0  0
 35 37  1  0  0  0  0
 35 70  1  0  0  0  0
 37 71  1  0  0  0  0
 38 40  1  0  0  0  0
 38 41  2  0  0  0  0
 39 72  1  0  0  0  0
 39 73  1  0  0  0  0
 39 74  1  0  0  0  0
 40 75  1  0  0  0  0
 40 76  1  0  0  0  0
 40 77  1  0  0  0  0
 41 42  1  0  0  0  0
 41 79  1  0  0  0  0
 42 80  1  0  0  0  0
 42 81  1  0  0  0  0
 42 82  1  0  0  0  0
M  END
> <PUBCHEM_COMPOUND_CID>
102511795

> <PUBCHEM_CONFORMER_RMSD>
1

> <PUBCHEM_CONFORMER_DIVERSEORDER>
2
34
49
20
44
47
29
41
27
32
50
42
51
35
52
8
17
23
18
46
13
28
24
40
36
48
16
33
43
45
22
39
9
14
19
26
3
25
10
12
31
38
15
11
21
7
37
30
4
1
5
6

> <PUBCHEM_MMFF94_PARTIAL_CHARGES>
37
1 -0.43
10 -0.68
11 0.06
12 0.14
15 -0.28
17 0.14
18 0.2
19 0.28
2 -0.43
21 0.45
23 -0.29
25 0.42
26 0.06
27 0.06
3 -0.57
31 0.66
32 -0.12
33 0.66
34 0.71
35 -0.29
36 0.71
37 0.7
38 -0.12
39 0.28
4 -0.57
40 0.14
41 -0.29
42 0.14
5 -0.43
52 0.15
6 -0.57
7 -0.43
70 0.15
78 0.4
79 0.15
8 -0.57
9 -0.57

> <PUBCHEM_EFFECTIVE_ROTOR_COUNT>
9

> <PUBCHEM_PHARMACOPHORE_FEATURES>
15
1 10 acceptor
1 10 donor
1 3 acceptor
1 4 acceptor
1 40 hydrophobe
1 42 hydrophobe
1 6 acceptor
1 8 acceptor
1 9 acceptor
3 14 28 29 hydrophobe
5 7 32 35 36 37 rings
6 11 12 15 18 21 23 rings
6 11 13 14 18 19 21 rings
6 12 15 16 17 20 22 rings
6 2 16 17 25 27 31 rings

> <PUBCHEM_HEAVY_ATOM_COUNT>
42

> <PUBCHEM_ATOM_DEF_STEREO_COUNT>
8

> <PUBCHEM_ATOM_UDEF_STEREO_COUNT>
1

> <PUBCHEM_BOND_DEF_STEREO_COUNT>
1

> <PUBCHEM_BOND_UDEF_STEREO_COUNT>
0

> <PUBCHEM_ISOTOPIC_ATOM_COUNT>
0

> <PUBCHEM_COMPONENT_COUNT>
1

> <PUBCHEM_CACTVS_TAUTO_COUNT>
12

> <PUBCHEM_CONFORMER_ID>
061C34B300000002

> <PUBCHEM_MMFF94_ENERGY>
128.6425

> <PUBCHEM_FEATURE_SELFOVERLAP>
77.426

> <PUBCHEM_SHAPE_FINGERPRINT>
10290309 65 17688040025381270352
11227688 84 17982177721037663494
11331351 85 17843698668166985592
11578080 2 17460587258951727213
12166972 35 18060415807172916955
12422481 6 12319443403385346734
12633046 712 18190485850816316487
12788726 201 17757559551729325040
131258 38 17130113564657079822
131258 43 18271823293835186716
13540713 4 17823990132803125331
13757389 114 17764878987197555572
13782708 43 18059573546774849094
14068700 675 17917428670724704778
15082195 135 18339078310274806472
15320294 125 16630516302912253519
15361156 5 18270695151090121898
17349148 13 17346881152032261431
19315092 285 17060047155727089827
20775438 99 18046042012371050311
21033648 29 16806430587113723905
21223535 225 18118099430584111053
21424621 283 11170499932132890246
23559900 14 18334579078666320682
255183 451 18272650108887520286
376196 1 17610329811662493824
4015057 19 18408328791103040489
508180 173 17968933085779093181
6695519 79 17406285798386224097
70251023 43 18412538795445895305

> <PUBCHEM_SHAPE_MULTIPOLES>
805.65
14.23
5.75
2.65
8.1
7.8
-0.31
-14.96
8.75
-10.93
1.89
1.61
-1.27
2.56

> <PUBCHEM_SHAPE_SELFOVERLAP>
1733.912

> <PUBCHEM_SHAPE_VOLUME>
433.5

> <PUBCHEM_COORDINATE_TYPE>
2
5
10

$$$$
