12304849
  -OEChem-08212012383D

 80 84  0     1  0  0  0  0  0999 V2000
   -2.1961    1.7348   -1.2112 O   0  0  0  0  0  0  0  0  0  0  0  0
   -3.3020   -1.2512    2.0983 O   0  0  0  0  0  0  0  0  0  0  0  0
    4.2871    1.4036    0.4051 O   0  0  0  0  0  0  0  0  0  0  0  0
   -4.6590   -3.2519    0.3034 O   0  0  0  0  0  0  0  0  0  0  0  0
   -4.5956   -1.2784   -0.8901 O   0  0  0  0  0  0  0  0  0  0  0  0
    3.7612    3.2729    1.5533 O   0  0  0  0  0  0  0  0  0  0  0  0
    7.0072   -1.5956   -0.7730 O   0  0  0  0  0  0  0  0  0  0  0  0
   -3.9440    2.6748   -0.0439 O   0  0  0  0  0  0  0  0  0  0  0  0
   -1.3947   -1.9942    0.7733 C   0  0  2  0  0  0  0  0  0  0  0  0
    0.0335   -1.5211    1.2605 C   0  0  2  0  0  0  0  0  0  0  0  0
   -1.6293   -2.0579   -0.8007 C   0  0  2  0  0  0  0  0  0  0  0  0
   -1.7324   -0.6532   -1.5558 C   0  0  0  0  0  0  0  0  0  0  0  0
   -2.1707    0.4197    0.8245 C   0  0  1  0  0  0  0  0  0  0  0  0
   -2.4397    0.4308   -0.6845 C   0  0  1  0  0  0  0  0  0  0  0  0
    0.3591   -0.0366    1.1178 C   0  0  0  0  0  0  0  0  0  0  0  0
   -2.3898   -0.9789    1.3224 C   0  0  0  0  0  0  0  0  0  0  0  0
   -0.8084    0.9110    1.3196 C   0  0  0  0  0  0  0  0  0  0  0  0
    1.1544   -2.4895    0.8154 C   0  0  0  0  0  0  0  0  0  0  0  0
    2.8040   -0.5345    0.7086 C   0  0  1  0  0  0  0  0  0  0  0  0
    1.6243    0.4151    0.9142 C   0  0  0  0  0  0  0  0  0  0  0  0
    2.2965   -1.8348    0.0520 C   0  0  0  0  0  0  0  0  0  0  0  0
   -1.6764   -3.3604    1.4641 C   0  0  0  0  0  0  0  0  0  0  0  0
   -2.8513   -2.9566   -1.1253 C   0  0  0  0  0  0  0  0  0  0  0  0
   -0.3468   -0.2012   -2.0746 C   0  0  0  0  0  0  0  0  0  0  0  0
   -2.5585   -0.7542   -2.8796 C   0  0  0  0  0  0  0  0  0  0  0  0
    3.8083    0.1955   -0.2374 C   0  0  2  0  0  0  0  0  0  0  0  0
    1.9400    1.8909    0.8266 C   0  0  0  0  0  0  0  0  0  0  0  0
    3.4236   -0.8491    2.0913 C   0  0  0  0  0  0  0  0  0  0  0  0
   -4.1226   -2.3649   -0.5864 C   0  0  0  0  0  0  0  0  0  0  0  0
    3.3997    2.2465    0.9845 C   0  0  0  0  0  0  0  0  0  0  0  0
    4.9861   -0.6366   -0.7028 C   0  0  0  0  0  0  0  0  0  0  0  0
   -2.8549    2.7552   -0.5941 C   0  0  0  0  0  0  0  0  0  0  0  0
    5.0544   -1.4205   -1.8720 C   0  0  0  0  0  0  0  0  0  0  0  0
    6.1909   -0.7710   -0.0656 C   0  0  0  0  0  0  0  0  0  0  0  0
   -2.0435    4.0063   -0.6943 C   0  0  0  0  0  0  0  0  0  0  0  0
    6.3081   -1.9864   -1.8708 C   0  0  0  0  0  0  0  0  0  0  0  0
   -5.8850   -2.8427    0.9183 C   0  0  0  0  0  0  0  0  0  0  0  0
   -1.1216    4.1646   -1.8669 C   0  0  0  0  0  0  0  0  0  0  0  0
   -2.1927    4.8852    0.3138 C   0  0  0  0  0  0  0  0  0  0  0  0
   -1.5233    6.2147    0.4620 C   0  0  0  0  0  0  0  0  0  0  0  0
   -0.0031   -1.6270    2.3590 H   0  0  0  0  0  0  0  0  0  0  0  0
   -0.7752   -2.5925   -1.2360 H   0  0  0  0  0  0  0  0  0  0  0  0
   -2.9179    1.0389    1.3353 H   0  0  0  0  0  0  0  0  0  0  0  0
   -3.5103    0.3518   -0.8024 H   0  0  0  0  0  0  0  0  0  0  0  0
   -0.6110    1.8928    0.8829 H   0  0  0  0  0  0  0  0  0  0  0  0
   -0.8874    1.0705    2.4046 H   0  0  0  0  0  0  0  0  0  0  0  0
    1.5612   -2.9814    1.7092 H   0  0  0  0  0  0  0  0  0  0  0  0
    0.7689   -3.3097    0.2013 H   0  0  0  0  0  0  0  0  0  0  0  0
    1.9628   -1.6331   -0.9734 H   0  0  0  0  0  0  0  0  0  0  0  0
    3.1075   -2.5687   -0.0311 H   0  0  0  0  0  0  0  0  0  0  0  0
   -1.3408   -3.3469    2.5088 H   0  0  0  0  0  0  0  0  0  0  0  0
   -1.1441   -4.1787    0.9685 H   0  0  0  0  0  0  0  0  0  0  0  0
   -2.7294   -3.6317    1.5203 H   0  0  0  0  0  0  0  0  0  0  0  0
   -2.7053   -3.9714   -0.7395 H   0  0  0  0  0  0  0  0  0  0  0  0
   -2.9781   -3.1192   -2.2005 H   0  0  0  0  0  0  0  0  0  0  0  0
   -0.4232    0.6675   -2.7400 H   0  0  0  0  0  0  0  0  0  0  0  0
    0.1346   -0.9991   -2.6522 H   0  0  0  0  0  0  0  0  0  0  0  0
    0.3364    0.0902   -1.2920 H   0  0  0  0  0  0  0  0  0  0  0  0
   -2.5249    0.1987   -3.4248 H   0  0  0  0  0  0  0  0  0  0  0  0
   -2.1172   -1.5040   -3.5484 H   0  0  0  0  0  0  0  0  0  0  0  0
   -3.6163   -0.9835   -2.7921 H   0  0  0  0  0  0  0  0  0  0  0  0
    3.2867    0.5202   -1.1512 H   0  0  0  0  0  0  0  0  0  0  0  0
    1.6152    2.2861   -0.1428 H   0  0  0  0  0  0  0  0  0  0  0  0
    1.4124    2.4292    1.6231 H   0  0  0  0  0  0  0  0  0  0  0  0
    3.8789    0.0321    2.5551 H   0  0  0  0  0  0  0  0  0  0  0  0
    2.6774   -1.2231    2.8013 H   0  0  0  0  0  0  0  0  0  0  0  0
    4.2028   -1.6146    2.0083 H   0  0  0  0  0  0  0  0  0  0  0  0
    4.2927   -1.5611   -2.6254 H   0  0  0  0  0  0  0  0  0  0  0  0
    6.6092   -0.3735    0.8479 H   0  0  0  0  0  0  0  0  0  0  0  0
    6.8276   -2.6539   -2.5425 H   0  0  0  0  0  0  0  0  0  0  0  0
   -6.0890   -3.5209    1.7512 H   0  0  0  0  0  0  0  0  0  0  0  0
   -6.7012   -2.9184    0.1941 H   0  0  0  0  0  0  0  0  0  0  0  0
   -5.8144   -1.8233    1.3090 H   0  0  0  0  0  0  0  0  0  0  0  0
   -1.6205    3.8446   -2.7885 H   0  0  0  0  0  0  0  0  0  0  0  0
   -0.2237    3.5532   -1.7309 H   0  0  0  0  0  0  0  0  0  0  0  0
   -0.8091    5.1987   -2.0294 H   0  0  0  0  0  0  0  0  0  0  0  0
   -2.8807    4.6520    1.1252 H   0  0  0  0  0  0  0  0  0  0  0  0
   -2.2692    7.0134    0.4037 H   0  0  0  0  0  0  0  0  0  0  0  0
   -0.7553    6.4074   -0.2893 H   0  0  0  0  0  0  0  0  0  0  0  0
   -1.0411    6.2715    1.4433 H   0  0  0  0  0  0  0  0  0  0  0  0
  1 14  1  0  0  0  0
  1 32  1  0  0  0  0
  2 16  2  0  0  0  0
  3 26  1  0  0  0  0
  3 30  1  0  0  0  0
  4 29  1  0  0  0  0
  4 37  1  0  0  0  0
  5 29  2  0  0  0  0
  6 30  2  0  0  0  0
  7 34  1  0  0  0  0
  7 36  1  0  0  0  0
  8 32  2  0  0  0  0
  9 10  1  0  0  0  0
  9 11  1  0  0  0  0
  9 16  1  0  0  0  0
  9 22  1  0  0  0  0
 10 15  1  0  0  0  0
 10 18  1  0  0  0  0
 10 41  1  0  0  0  0
 11 12  1  0  0  0  0
 11 23  1  0  0  0  0
 11 42  1  0  0  0  0
 12 14  1  0  0  0  0
 12 24  1  0  0  0  0
 12 25  1  0  0  0  0
 13 14  1  0  0  0  0
 13 16  1  0  0  0  0
 13 17  1  0  0  0  0
 13 43  1  0  0  0  0
 14 44  1  0  0  0  0
 15 17  1  0  0  0  0
 15 20  2  0  0  0  0
 17 45  1  0  0  0  0
 17 46  1  0  0  0  0
 18 21  1  0  0  0  0
 18 47  1  0  0  0  0
 18 48  1  0  0  0  0
 19 20  1  0  0  0  0
 19 21  1  0  0  0  0
 19 26  1  0  0  0  0
 19 28  1  0  0  0  0
 20 27  1  0  0  0  0
 21 49  1  0  0  0  0
 21 50  1  0  0  0  0
 22 51  1  0  0  0  0
 22 52  1  0  0  0  0
 22 53  1  0  0  0  0
 23 29  1  0  0  0  0
 23 54  1  0  0  0  0
 23 55  1  0  0  0  0
 24 56  1  0  0  0  0
 24 57  1  0  0  0  0
 24 58  1  0  0  0  0
 25 59  1  0  0  0  0
 25 60  1  0  0  0  0
 25 61  1  0  0  0  0
 26 31  1  0  0  0  0
 26 62  1  0  0  0  0
 27 30  1  0  0  0  0
 27 63  1  0  0  0  0
 27 64  1  0  0  0  0
 28 65  1  0  0  0  0
 28 66  1  0  0  0  0
 28 67  1  0  0  0  0
 31 33  1  0  0  0  0
 31 34  2  0  0  0  0
 32 35  1  0  0  0  0
 33 36  2  0  0  0  0
 33 68  1  0  0  0  0
 34 69  1  0  0  0  0
 35 38  1  0  0  0  0
 35 39  2  0  0  0  0
 36 70  1  0  0  0  0
 37 71  1  0  0  0  0
 37 72  1  0  0  0  0
 37 73  1  0  0  0  0
 38 74  1  0  0  0  0
 38 75  1  0  0  0  0
 38 76  1  0  0  0  0
 39 40  1  0  0  0  0
 39 77  1  0  0  0  0
 40 78  1  0  0  0  0
 40 79  1  0  0  0  0
 40 80  1  0  0  0  0
M  END
> <PUBCHEM_COMPOUND_CID>
12304849

> <PUBCHEM_CONFORMER_RMSD>
1

> <PUBCHEM_CONFORMER_DIVERSEORDER>
1
6
7
8
3
4
5
2

> <PUBCHEM_MMFF94_PARTIAL_CHARGES>
36
1 -0.43
10 0.14
13 0.06
14 0.28
15 -0.28
16 0.45
17 0.14
19 0.14
2 -0.57
20 -0.28
23 0.06
26 0.46
27 0.2
29 0.66
3 -0.43
30 0.66
31 -0.18
32 0.71
33 -0.15
34 -0.01
35 -0.12
36 -0.01
37 0.28
38 0.14
39 -0.29
4 -0.43
40 0.14
5 -0.57
6 -0.57
68 0.15
69 0.15
7 -0.28
70 0.15
77 0.15
8 -0.57
9 0.06

> <PUBCHEM_EFFECTIVE_ROTOR_COUNT>
8.8

> <PUBCHEM_PHARMACOPHORE_FEATURES>
13
1 2 acceptor
1 38 hydrophobe
1 40 hydrophobe
1 5 acceptor
1 6 acceptor
1 7 acceptor
1 8 acceptor
3 12 24 25 hydrophobe
5 7 31 33 34 36 rings
6 10 15 18 19 20 21 rings
6 3 19 20 26 27 30 rings
6 9 10 13 15 16 17 rings
6 9 11 12 13 14 16 rings

> <PUBCHEM_HEAVY_ATOM_COUNT>
40

> <PUBCHEM_ATOM_DEF_STEREO_COUNT>
7

> <PUBCHEM_ATOM_UDEF_STEREO_COUNT>
0

> <PUBCHEM_BOND_DEF_STEREO_COUNT>
1

> <PUBCHEM_BOND_UDEF_STEREO_COUNT>
0

> <PUBCHEM_ISOTOPIC_ATOM_COUNT>
0

> <PUBCHEM_COMPONENT_COUNT>
1

> <PUBCHEM_CACTVS_TAUTO_COUNT>
1

> <PUBCHEM_CONFORMER_ID>
00BBC1D100000001

> <PUBCHEM_MMFF94_ENERGY>
153.0824

> <PUBCHEM_FEATURE_SELFOVERLAP>
67.203

> <PUBCHEM_SHAPE_FINGERPRINT>
10165383 225 17969793968648960884
10190108 129 18263382377144009635
11135609 12 17989203776722240426
11399939 17 17336471212781690375
11513181 2 18337956821954330316
11763715 3 18263658409821662383
12107698 1 18273496792807322022
12156800 1 17322164027518385813
12422481 6 17917160484893525463
12788726 201 18261384529950412203
131258 43 17900007064007274390
13690498 29 18412833482100659574
13782708 43 18334582377692567762
13944108 23 16391554737938484108
14068700 675 18041282161750715615
14713325 29 18339361864385051215
14955137 171 18045510961318928515
15163728 17 17692255140434098773
15183329 4 16877663440779421038
15484559 13 17406536023202286149
15840311 113 18200603626542274107
15968369 153 18271225193099411241
19311894 1 18197220248368656328
21033650 10 18334863767001203082
22393880 68 18411132511948031650
3388396 114 17753641180014675292
3610482 184 17751667397981565446
4058900 60 17548984351734861613
4394409 98 17258510946246100110
46194498 28 18272373122463084382
469060 322 14996300110116871729
484985 159 16128648631218794839
508706 21 18409164407545910482
513202 73 18411990169340359475
5252454 2 17897720964358065292
57527295 17 18188497865981650154

> <PUBCHEM_SHAPE_MULTIPOLES>
776.23
11.56
6.04
2.07
16.33
10.04
-0.68
-7.2
-2.86
-7.58
0.37
0.09
-0.51
2.15

> <PUBCHEM_SHAPE_SELFOVERLAP>
1675.973

> <PUBCHEM_SHAPE_VOLUME>
419.4

> <PUBCHEM_COORDINATE_TYPE>
2
5
10

$$$$
