101864674
  -OEChem-08212013173D

 87 92  0     1  0  0  0  0  0999 V2000
    2.6393    0.8451   -2.5492 O   0  0  0  0  0  0  0  0  0  0  0  0
   -2.0752   -1.1304   -0.3567 O   0  0  0  0  0  0  0  0  0  0  0  0
    0.2623    0.8269    1.5981 O   0  0  0  0  0  0  0  0  0  0  0  0
    5.0438    0.8619   -0.7633 O   0  0  0  0  0  0  0  0  0  0  0  0
    0.3277    4.1715   -0.8975 O   0  0  0  0  0  0  0  0  0  0  0  0
    5.0825   -1.5858    2.0851 O   0  0  0  0  0  0  0  0  0  0  0  0
   -5.9738    2.7339    0.8522 O   0  0  0  0  0  0  0  0  0  0  0  0
    6.2285    0.4028   -2.6196 O   0  0  0  0  0  0  0  0  0  0  0  0
    3.4676   -2.3982    3.4167 O   0  0  0  0  0  0  0  0  0  0  0  0
   -2.6376   -2.0113    1.6988 O   0  0  0  0  0  0  0  0  0  0  0  0
   -0.4278   -0.5001    3.3654 O   0  0  0  0  0  0  0  0  0  0  0  0
   -3.4989   -4.2841    0.5610 O   0  0  0  0  0  0  0  0  0  0  0  0
    2.2803   -0.6511   -0.4908 C   0  0  2  0  0  0  0  0  0  0  0  0
    0.7642   -0.1416   -0.6020 C   0  0  1  0  0  0  0  0  0  0  0  0
   -1.8224    1.3115   -0.6350 C   0  0  1  0  0  0  0  0  0  0  0  0
   -0.1313   -0.1744    0.6633 C   0  0  2  0  0  0  0  0  0  0  0  0
   -0.5215    1.9060   -1.1888 C   0  0  0  0  0  0  0  0  0  0  0  0
   -1.6053    0.0616    0.2831 C   0  0  2  0  0  0  0  0  0  0  0  0
    3.1104    0.0763    0.6622 C   0  0  2  0  0  0  0  0  0  0  0  0
    0.6517    1.2405   -1.2264 C   0  0  0  0  0  0  0  0  0  0  0  0
   -2.3277    2.5597    0.1552 C   0  0  1  0  0  0  0  0  0  0  0  0
    2.8242   -0.4441   -1.9533 C   0  0  2  0  0  0  0  0  0  0  0  0
   -0.7115    3.3847   -1.4679 C   0  0  1  0  0  0  0  0  0  0  0  0
   -2.0357    3.7461   -0.7872 C   0  0  0  0  0  0  0  0  0  0  0  0
    4.6421    0.2823    0.5029 C   0  0  1  0  0  0  0  0  0  0  0  0
    1.9081    1.8089   -1.8109 C   0  0  0  0  0  0  0  0  0  0  0  0
    2.2362   -2.1884   -0.2436 C   0  0  0  0  0  0  0  0  0  0  0  0
   -2.7235    0.9574   -1.8441 C   0  0  0  0  0  0  0  0  0  0  0  0
    2.8796   -0.5152    2.0743 C   0  0  0  0  0  0  0  0  0  0  0  0
    4.2542   -0.8836   -2.2387 C   0  0  0  0  0  0  0  0  0  0  0  0
   -3.7423    2.5130    0.7002 C   0  0  0  0  0  0  0  0  0  0  0  0
    5.4262   -0.9889    0.8257 C   0  0  0  0  0  0  0  0  0  0  0  0
    5.1173    1.3774    1.4998 C   0  0  0  0  0  0  0  0  0  0  0  0
    5.2726    0.1585   -1.8885 C   0  0  0  0  0  0  0  0  0  0  0  0
    3.8160   -1.5997    2.5486 C   0  0  0  0  0  0  0  0  0  0  0  0
   -4.1524    2.0322    1.9666 C   0  0  0  0  0  0  0  0  0  0  0  0
   -4.8868    2.9284    0.0604 C   0  0  0  0  0  0  0  0  0  0  0  0
   -2.5682   -2.0897    0.4790 C   0  0  0  0  0  0  0  0  0  0  0  0
    0.0544    0.5253    2.9103 C   0  0  0  0  0  0  0  0  0  0  0  0
   -5.5183    2.1881    2.0104 C   0  0  0  0  0  0  0  0  0  0  0  0
   -3.0562   -3.2756   -0.3355 C   0  0  2  0  0  0  0  0  0  0  0  0
   -4.1954   -2.8999   -1.3067 C   0  0  1  0  0  0  0  0  0  0  0  0
   -4.6806   -4.1048   -2.1422 C   0  0  0  0  0  0  0  0  0  0  0  0
   -5.4022   -2.3053   -0.5638 C   0  0  0  0  0  0  0  0  0  0  0  0
   -3.5943   -4.7277   -3.0075 C   0  0  0  0  0  0  0  0  0  0  0  0
    0.2966   -0.8247   -1.3299 H   0  0  0  0  0  0  0  0  0  0  0  0
   -0.0393   -1.1729    1.1039 H   0  0  0  0  0  0  0  0  0  0  0  0
   -2.1848    0.2240    1.1971 H   0  0  0  0  0  0  0  0  0  0  0  0
    2.6863    1.0855    0.7050 H   0  0  0  0  0  0  0  0  0  0  0  0
   -1.6764    2.6950    1.0344 H   0  0  0  0  0  0  0  0  0  0  0  0
    2.2121   -1.0994   -2.5912 H   0  0  0  0  0  0  0  0  0  0  0  0
   -0.7582    3.5808   -2.5443 H   0  0  0  0  0  0  0  0  0  0  0  0
   -2.8178    3.8588   -1.5466 H   0  0  0  0  0  0  0  0  0  0  0  0
   -1.9887    4.6883   -0.2290 H   0  0  0  0  0  0  0  0  0  0  0  0
    1.6877    2.6179   -2.5146 H   0  0  0  0  0  0  0  0  0  0  0  0
    2.5537    2.2404   -1.0418 H   0  0  0  0  0  0  0  0  0  0  0  0
    3.2349   -2.6181   -0.1413 H   0  0  0  0  0  0  0  0  0  0  0  0
    1.7498   -2.7080   -1.0781 H   0  0  0  0  0  0  0  0  0  0  0  0
    1.6707   -2.4643    0.6494 H   0  0  0  0  0  0  0  0  0  0  0  0
   -2.9243    1.8158   -2.4935 H   0  0  0  0  0  0  0  0  0  0  0  0
   -3.6933    0.5697   -1.5134 H   0  0  0  0  0  0  0  0  0  0  0  0
   -2.2550    0.1954   -2.4790 H   0  0  0  0  0  0  0  0  0  0  0  0
    1.8930   -0.9618    2.1504 H   0  0  0  0  0  0  0  0  0  0  0  0
    2.9290    0.2847    2.8226 H   0  0  0  0  0  0  0  0  0  0  0  0
    4.3399   -1.0077   -3.3282 H   0  0  0  0  0  0  0  0  0  0  0  0
    4.5102   -1.8513   -1.8094 H   0  0  0  0  0  0  0  0  0  0  0  0
    5.3235   -1.7688    0.0724 H   0  0  0  0  0  0  0  0  0  0  0  0
    6.5008   -0.7699    0.8546 H   0  0  0  0  0  0  0  0  0  0  0  0
    4.5700    2.3135    1.3359 H   0  0  0  0  0  0  0  0  0  0  0  0
    6.1760    1.6143    1.3344 H   0  0  0  0  0  0  0  0  0  0  0  0
    5.0054    1.0919    2.5493 H   0  0  0  0  0  0  0  0  0  0  0  0
    0.1358    5.1022   -1.1036 H   0  0  0  0  0  0  0  0  0  0  0  0
   -3.5341    1.6248    2.7538 H   0  0  0  0  0  0  0  0  0  0  0  0
   -5.0942    3.3584   -0.9088 H   0  0  0  0  0  0  0  0  0  0  0  0
    0.3967    1.3741    3.5218 H   0  0  0  0  0  0  0  0  0  0  0  0
   -6.2720    1.9720    2.7534 H   0  0  0  0  0  0  0  0  0  0  0  0
   -2.1907   -3.6714   -0.8778 H   0  0  0  0  0  0  0  0  0  0  0  0
   -3.8282   -2.1333   -2.0013 H   0  0  0  0  0  0  0  0  0  0  0  0
   -2.7270   -4.5813    1.0725 H   0  0  0  0  0  0  0  0  0  0  0  0
   -5.1064   -4.8772   -1.4903 H   0  0  0  0  0  0  0  0  0  0  0  0
   -5.4918   -3.7741   -2.8031 H   0  0  0  0  0  0  0  0  0  0  0  0
   -5.8265   -3.0178    0.1514 H   0  0  0  0  0  0  0  0  0  0  0  0
   -5.1269   -1.3971   -0.0181 H   0  0  0  0  0  0  0  0  0  0  0  0
   -6.1925   -2.0297   -1.2708 H   0  0  0  0  0  0  0  0  0  0  0  0
   -3.1066   -3.9723   -3.6315 H   0  0  0  0  0  0  0  0  0  0  0  0
   -2.8320   -5.2252   -2.4013 H   0  0  0  0  0  0  0  0  0  0  0  0
   -4.0306   -5.4831   -3.6692 H   0  0  0  0  0  0  0  0  0  0  0  0
  1 22  1  0  0  0  0
  1 26  1  0  0  0  0
  2 18  1  0  0  0  0
  2 38  1  0  0  0  0
  3 16  1  0  0  0  0
  3 39  1  0  0  0  0
  4 25  1  0  0  0  0
  4 34  1  0  0  0  0
  5 23  1  0  0  0  0
  5 72  1  0  0  0  0
  6 32  1  0  0  0  0
  6 35  1  0  0  0  0
  7 37  1  0  0  0  0
  7 40  1  0  0  0  0
  8 34  2  0  0  0  0
  9 35  2  0  0  0  0
 10 38  2  0  0  0  0
 11 39  2  0  0  0  0
 12 41  1  0  0  0  0
 12 79  1  0  0  0  0
 13 14  1  0  0  0  0
 13 19  1  0  0  0  0
 13 22  1  0  0  0  0
 13 27  1  0  0  0  0
 14 16  1  0  0  0  0
 14 20  1  0  0  0  0
 14 46  1  0  0  0  0
 15 17  1  0  0  0  0
 15 18  1  0  0  0  0
 15 21  1  0  0  0  0
 15 28  1  0  0  0  0
 16 18  1  0  0  0  0
 16 47  1  0  0  0  0
 17 20  2  0  0  0  0
 17 23  1  0  0  0  0
 18 48  1  0  0  0  0
 19 25  1  0  0  0  0
 19 29  1  0  0  0  0
 19 49  1  0  0  0  0
 20 26  1  0  0  0  0
 21 24  1  0  0  0  0
 21 31  1  0  0  0  0
 21 50  1  0  0  0  0
 22 30  1  0  0  0  0
 22 51  1  0  0  0  0
 23 24  1  0  0  0  0
 23 52  1  0  0  0  0
 24 53  1  0  0  0  0
 24 54  1  0  0  0  0
 25 32  1  0  0  0  0
 25 33  1  0  0  0  0
 26 55  1  0  0  0  0
 26 56  1  0  0  0  0
 27 57  1  0  0  0  0
 27 58  1  0  0  0  0
 27 59  1  0  0  0  0
 28 60  1  0  0  0  0
 28 61  1  0  0  0  0
 28 62  1  0  0  0  0
 29 35  1  0  0  0  0
 29 63  1  0  0  0  0
 29 64  1  0  0  0  0
 30 34  1  0  0  0  0
 30 65  1  0  0  0  0
 30 66  1  0  0  0  0
 31 36  1  0  0  0  0
 31 37  2  0  0  0  0
 32 67  1  0  0  0  0
 32 68  1  0  0  0  0
 33 69  1  0  0  0  0
 33 70  1  0  0  0  0
 33 71  1  0  0  0  0
 36 40  2  0  0  0  0
 36 73  1  0  0  0  0
 37 74  1  0  0  0  0
 38 41  1  0  0  0  0
 39 75  1  0  0  0  0
 40 76  1  0  0  0  0
 41 42  1  0  0  0  0
 41 77  1  0  0  0  0
 42 43  1  0  0  0  0
 42 44  1  0  0  0  0
 42 78  1  0  0  0  0
 43 45  1  0  0  0  0
 43 80  1  0  0  0  0
 43 81  1  0  0  0  0
 44 82  1  0  0  0  0
 44 83  1  0  0  0  0
 44 84  1  0  0  0  0
 45 85  1  0  0  0  0
 45 86  1  0  0  0  0
 45 87  1  0  0  0  0
M  END
> <PUBCHEM_COMPOUND_CID>
101864674

> <PUBCHEM_CONFORMER_RMSD>
1.2

> <PUBCHEM_CONFORMER_DIVERSEORDER>
1
9
14
8
6
7
4
2
12
10
13
5
11
3

> <PUBCHEM_MMFF94_PARTIAL_CHARGES>
41
1 -0.56
10 -0.57
11 -0.57
12 -0.68
14 0.14
15 0.14
16 0.28
17 -0.28
18 0.28
2 -0.43
20 -0.28
21 0.18
22 0.28
23 0.42
25 0.28
26 0.42
29 0.06
3 -0.43
30 0.06
31 -0.18
32 0.28
34 0.66
35 0.66
36 -0.15
37 -0.01
38 0.66
39 0.66
4 -0.43
40 -0.01
41 0.34
5 -0.68
6 -0.43
7 -0.28
72 0.4
73 0.15
74 0.15
75 0.06
76 0.15
79 0.4
8 -0.57
9 -0.57

> <PUBCHEM_EFFECTIVE_ROTOR_COUNT>
10.4

> <PUBCHEM_PHARMACOPHORE_FEATURES>
18
1 1 acceptor
1 10 acceptor
1 11 acceptor
1 12 acceptor
1 12 donor
1 44 hydrophobe
1 45 hydrophobe
1 5 acceptor
1 5 donor
1 7 acceptor
1 8 acceptor
1 9 acceptor
5 15 17 21 23 24 rings
5 7 31 36 37 40 rings
6 1 13 14 20 22 26 rings
6 14 15 16 17 18 20 rings
6 6 19 25 29 32 35 rings
7 4 13 19 22 25 30 34 rings

> <PUBCHEM_HEAVY_ATOM_COUNT>
45

> <PUBCHEM_ATOM_DEF_STEREO_COUNT>
10

> <PUBCHEM_ATOM_UDEF_STEREO_COUNT>
2

> <PUBCHEM_BOND_DEF_STEREO_COUNT>
0

> <PUBCHEM_BOND_UDEF_STEREO_COUNT>
0

> <PUBCHEM_ISOTOPIC_ATOM_COUNT>
0

> <PUBCHEM_COMPONENT_COUNT>
1

> <PUBCHEM_CACTVS_TAUTO_COUNT>
4

> <PUBCHEM_CONFORMER_ID>
061254E200000001

> <PUBCHEM_MMFF94_ENERGY>
163.1841

> <PUBCHEM_FEATURE_SELFOVERLAP>
91.575

> <PUBCHEM_SHAPE_FINGERPRINT>
11115154 58 18052518149249877071
11135926 11 16660937655597276998
11578080 2 17988651804193531392
11763715 3 18187352217376992604
12788726 201 18260269659229584487
13782708 43 17917440847785411470
14068700 675 18196918084534403031
15131766 46 15432609490813450189
15200665 1 18272658904875157521
15484559 13 15295724352289881317
19319366 153 17386875861828116320
21033648 29 17489863826241288998
21703447 108 18052540164344900785
244849 19 16988837280890552811
25147074 1 18113903753476454462
3380486 77 15504028209125740488
463206 1 17824255119332451418
5080951 261 18268968960895002343
57527295 17 17532650337757922227
5912855 24 18113627797517311147
613672 6 18194962070059545063

> <PUBCHEM_SHAPE_MULTIPOLES>
855.65
12.75
5.17
3.18
4.28
2.94
-1.22
2.65
-0.28
-11.08
2.25
2.6
0.92
-3.7

> <PUBCHEM_SHAPE_SELFOVERLAP>
1844.979

> <PUBCHEM_SHAPE_VOLUME>
459.8

> <PUBCHEM_COORDINATE_TYPE>
2
5
10

$$$$
