56634190
  -OEChem-08212012453D

 57 57  0     1  0  0  0  0  0999 V2000
   -3.1641    3.4707   -0.0129 O   0  0  0  0  0  0  0  0  0  0  0  0
    0.4407   -3.1131    0.3869 O   0  0  0  0  0  0  0  0  0  0  0  0
    3.6425   -0.2926   -0.6940 C   0  0  0  0  0  0  0  0  0  0  0  0
    3.0751   -1.6265   -1.1843 C   0  0  0  0  0  0  0  0  0  0  0  0
    3.4707    0.8451   -1.7072 C   0  0  0  0  0  0  0  0  0  0  0  0
    3.2400   -2.7765   -0.1818 C   0  0  0  0  0  0  0  0  0  0  0  0
    4.0371    2.2052   -1.2808 C   0  0  0  0  0  0  0  0  0  0  0  0
    2.6522   -2.5121    1.2114 C   0  0  0  0  0  0  0  0  0  0  0  0
   -3.1844    0.5162   -0.5835 C   0  0  0  0  0  0  0  0  0  0  0  0
   -3.6576    1.2265    0.6886 C   0  0  0  0  0  0  0  0  0  0  0  0
    3.3882    2.8274   -0.0399 C   0  0  0  0  0  0  0  0  0  0  0  0
   -3.9429   -0.7976   -0.7934 C   0  0  0  0  0  0  0  0  0  0  0  0
   -2.8819    2.5132    1.0079 C   0  0  1  0  0  0  0  0  0  0  0  0
   -3.4908   -1.5702   -2.0343 C   0  0  0  0  0  0  0  0  0  0  0  0
    1.1525   -2.3835    1.2856 C   0  0  0  0  0  0  0  0  0  0  0  0
    1.9249    3.1122   -0.2245 C   0  0  0  0  0  0  0  0  0  0  0  0
   -1.3953    2.2874    1.1284 C   0  0  0  0  0  0  0  0  0  0  0  0
   -4.2614   -2.8608   -2.2617 C   0  0  0  0  0  0  0  0  0  0  0  0
    0.9648    2.5706    0.5395 C   0  0  0  0  0  0  0  0  0  0  0  0
   -0.4439    2.8363    0.3562 C   0  0  0  0  0  0  0  0  0  0  0  0
    0.3096   -1.6601    2.0969 C   0  0  0  0  0  0  0  0  0  0  0  0
   -1.0047   -1.9650    1.6694 C   0  0  0  0  0  0  0  0  0  0  0  0
   -0.8711   -2.8529    0.6272 C   0  0  0  0  0  0  0  0  0  0  0  0
    3.1384   -0.0015    0.2321 H   0  0  0  0  0  0  0  0  0  0  0  0
    4.7069   -0.4121   -0.4594 H   0  0  0  0  0  0  0  0  0  0  0  0
    3.5710   -1.9082   -2.1212 H   0  0  0  0  0  0  0  0  0  0  0  0
    2.0116   -1.5011   -1.4211 H   0  0  0  0  0  0  0  0  0  0  0  0
    2.4077    0.9507   -1.9557 H   0  0  0  0  0  0  0  0  0  0  0  0
    3.9703    0.5531   -2.6399 H   0  0  0  0  0  0  0  0  0  0  0  0
    2.7979   -3.6844   -0.6101 H   0  0  0  0  0  0  0  0  0  0  0  0
    4.3119   -2.9809   -0.0653 H   0  0  0  0  0  0  0  0  0  0  0  0
    3.9391    2.9007   -2.1244 H   0  0  0  0  0  0  0  0  0  0  0  0
    5.1127    2.0970   -1.0940 H   0  0  0  0  0  0  0  0  0  0  0  0
   -2.1136    0.2923   -0.5242 H   0  0  0  0  0  0  0  0  0  0  0  0
   -3.3319    1.1678   -1.4527 H   0  0  0  0  0  0  0  0  0  0  0  0
    2.9264   -3.3597    1.8535 H   0  0  0  0  0  0  0  0  0  0  0  0
    3.1178   -1.6335    1.6705 H   0  0  0  0  0  0  0  0  0  0  0  0
   -4.7229    1.4662    0.5791 H   0  0  0  0  0  0  0  0  0  0  0  0
   -3.5688    0.5389    1.5394 H   0  0  0  0  0  0  0  0  0  0  0  0
    3.8912    3.7783    0.1755 H   0  0  0  0  0  0  0  0  0  0  0  0
    3.5609    2.1884    0.8336 H   0  0  0  0  0  0  0  0  0  0  0  0
   -3.8200   -1.4366    0.0893 H   0  0  0  0  0  0  0  0  0  0  0  0
   -5.0155   -0.5824   -0.8781 H   0  0  0  0  0  0  0  0  0  0  0  0
   -3.2442    2.9311    1.9541 H   0  0  0  0  0  0  0  0  0  0  0  0
   -2.4228   -1.8023   -1.9518 H   0  0  0  0  0  0  0  0  0  0  0  0
   -3.6067   -0.9318   -2.9184 H   0  0  0  0  0  0  0  0  0  0  0  0
    1.6599    3.7994   -1.0249 H   0  0  0  0  0  0  0  0  0  0  0  0
   -1.0981    1.6148    1.9319 H   0  0  0  0  0  0  0  0  0  0  0  0
   -4.1402   -3.5415   -1.4131 H   0  0  0  0  0  0  0  0  0  0  0  0
   -5.3296   -2.6601   -2.3913 H   0  0  0  0  0  0  0  0  0  0  0  0
   -3.8978   -3.3680   -3.1607 H   0  0  0  0  0  0  0  0  0  0  0  0
    1.2418    1.8865    1.3380 H   0  0  0  0  0  0  0  0  0  0  0  0
   -0.7145    3.5114   -0.4506 H   0  0  0  0  0  0  0  0  0  0  0  0
    0.6033   -0.9945    2.8960 H   0  0  0  0  0  0  0  0  0  0  0  0
   -4.1237    3.6284   -0.0112 H   0  0  0  0  0  0  0  0  0  0  0  0
   -1.9329   -1.5852    2.0711 H   0  0  0  0  0  0  0  0  0  0  0  0
   -1.5739   -3.3670   -0.0117 H   0  0  0  0  0  0  0  0  0  0  0  0
  1 13  1  0  0  0  0
  1 55  1  0  0  0  0
  2 15  1  0  0  0  0
  2 23  1  0  0  0  0
  3  4  1  0  0  0  0
  3  5  1  0  0  0  0
  3 24  1  0  0  0  0
  3 25  1  0  0  0  0
  4  6  1  0  0  0  0
  4 26  1  0  0  0  0
  4 27  1  0  0  0  0
  5  7  1  0  0  0  0
  5 28  1  0  0  0  0
  5 29  1  0  0  0  0
  6  8  1  0  0  0  0
  6 30  1  0  0  0  0
  6 31  1  0  0  0  0
  7 11  1  0  0  0  0
  7 32  1  0  0  0  0
  7 33  1  0  0  0  0
  8 15  1  0  0  0  0
  8 36  1  0  0  0  0
  8 37  1  0  0  0  0
  9 10  1  0  0  0  0
  9 12  1  0  0  0  0
  9 34  1  0  0  0  0
  9 35  1  0  0  0  0
 10 13  1  0  0  0  0
 10 38  1  0  0  0  0
 10 39  1  0  0  0  0
 11 16  1  0  0  0  0
 11 40  1  0  0  0  0
 11 41  1  0  0  0  0
 12 14  1  0  0  0  0
 12 42  1  0  0  0  0
 12 43  1  0  0  0  0
 13 17  1  0  0  0  0
 13 44  1  0  0  0  0
 14 18  1  0  0  0  0
 14 45  1  0  0  0  0
 14 46  1  0  0  0  0
 15 21  2  0  0  0  0
 16 19  2  3  0  0  0
 16 47  1  0  0  0  0
 17 20  2  3  0  0  0
 17 48  1  0  0  0  0
 18 49  1  0  0  0  0
 18 50  1  0  0  0  0
 18 51  1  0  0  0  0
 19 20  1  0  0  0  0
 19 52  1  0  0  0  0
 20 53  1  0  0  0  0
 21 22  1  0  0  0  0
 21 54  1  0  0  0  0
 22 23  2  0  0  0  0
 22 56  1  0  0  0  0
 23 57  1  0  0  0  0
M  END
> <PUBCHEM_COMPOUND_CID>
56634190

> <PUBCHEM_CONFORMER_RMSD>
1.6

> <PUBCHEM_CONFORMER_DIVERSEORDER>
1
13
55
50
44
26
37
33
28
35
24
5
42
34
51
66
22
56
48
54
9
38
41
62
65
6
23
68
39
11
25
30
18
45
67
61
57
43
10
27
19
36
8
64
21
20
49
31
14
63
17
46
29
32
60
58
59
16
2
52
47
69
15
53
40
12
3
7
4

> <PUBCHEM_MMFF94_PARTIAL_CHARGES>
21
1 -0.68
11 0.14
13 0.42
15 -0.04
16 -0.29
17 -0.29
19 -0.15
2 -0.28
20 -0.15
21 -0.15
22 -0.15
23 -0.01
47 0.15
48 0.15
52 0.15
53 0.15
54 0.15
55 0.4
56 0.15
57 0.15
8 0.18

> <PUBCHEM_EFFECTIVE_ROTOR_COUNT>
14

> <PUBCHEM_PHARMACOPHORE_FEATURES>
6
1 1 acceptor
1 1 donor
1 18 hydrophobe
1 2 acceptor
4 9 10 12 14 hydrophobe
5 2 15 21 22 23 rings

> <PUBCHEM_HEAVY_ATOM_COUNT>
23

> <PUBCHEM_ATOM_DEF_STEREO_COUNT>
0

> <PUBCHEM_ATOM_UDEF_STEREO_COUNT>
1

> <PUBCHEM_BOND_DEF_STEREO_COUNT>
0

> <PUBCHEM_BOND_UDEF_STEREO_COUNT>
2

> <PUBCHEM_ISOTOPIC_ATOM_COUNT>
0

> <PUBCHEM_COMPONENT_COUNT>
1

> <PUBCHEM_CACTVS_TAUTO_COUNT>
1

> <PUBCHEM_CONFORMER_ID>
03602B4E00000001

> <PUBCHEM_MMFF94_ENERGY>
6.0976

> <PUBCHEM_FEATURE_SELFOVERLAP>
30.446

> <PUBCHEM_SHAPE_FINGERPRINT>
12156800 1 15330914728858926250
13122387 1 18335437758898901920
14114207 22 16883798779405939584
14117953 113 17113816293782154461
14123250 116 18409736187514405079
14251757 17 18191025818468263363
14251757 5 17252046311800848484
14931854 50 18337954609470445556
17977149 70 16903290599215266286
19026451 147 18126254619479530055
20764821 26 17904496438217676020
238 59 18124873718721297118
25265897 201 17627541279305428063
4283 87 18339082579688985916
437795 51 18189333649558862615
4409770 3 17399522715423150616
445580 8 17907300948925069817
463206 1 18120100472425805928
5895379 119 18342167848224672354

> <PUBCHEM_SHAPE_MULTIPOLES>
461.59
8.42
5.74
1.98
1.91
1.05
0.36
0.51
5.5
-0.5
-1.07
0.94
-1.4
-2.82

> <PUBCHEM_SHAPE_SELFOVERLAP>
891.427

> <PUBCHEM_SHAPE_VOLUME>
280.6

> <PUBCHEM_COORDINATE_TYPE>
2
5
10

$$$$
