101864675
  -OEChem-08232003332D

110114  0     1  0  0  0  0  0999 V2000
    9.7658   -0.6310    0.0000 O   0  0  0  0  0  0  0  0  0  0  0  0
    5.2929   -0.5343    0.0000 O   0  0  0  0  0  0  0  0  0  0  0  0
    8.8780    3.9005    0.0000 O   0  0  0  0  0  0  0  0  0  0  0  0
    6.5287    2.5058    0.0000 O   0  0  0  0  0  0  0  0  0  0  0  0
    5.0915   -2.0275    0.0000 O   0  0  0  0  0  0  0  0  0  0  0  0
    3.8580    0.3978    0.0000 O   0  0  0  0  0  0  0  0  0  0  0  0
   11.0038    5.2738    0.0000 O   0  0  0  0  0  0  0  0  0  0  0  0
    8.9172   -2.1409    0.0000 O   0  0  0  0  0  0  0  0  0  0  0  0
    7.1460    3.9005    0.0000 O   0  0  0  0  0  0  0  0  0  0  0  0
    6.0220    4.1621    0.0000 O   0  0  0  0  0  0  0  0  0  0  0  0
   11.5094   -1.6109    0.0000 O   0  0  0  0  0  0  0  0  0  0  0  0
    5.5803   -3.6891    0.0000 O   0  0  0  0  0  0  0  0  0  0  0  0
    3.1728   -2.5919    0.0000 O   0  0  0  0  0  0  0  0  0  0  0  0
    3.4264   -5.2255    0.0000 O   0  0  0  0  0  0  0  0  0  0  0  0
    8.0120    1.4005    0.0000 C   0  0  2  0  0  0  0  0  0  0  0  0
    7.1020    0.8936    0.0000 C   0  0  2  0  0  0  0  0  0  0  0  0
    8.8780    0.9005    0.0000 C   0  0  2  0  0  0  0  0  0  0  0  0
    7.0940   -0.1480    0.0000 C   0  0  1  0  0  0  0  0  0  0  0  0
    9.7441    2.4005    0.0000 C   0  0  1  0  0  0  0  0  0  0  0  0
    9.7441    1.4005    0.0000 C   0  0  0  0  0  0  0  0  0  0  0  0
    8.0120    2.4005    0.0000 C   0  0  0  0  0  0  0  0  0  0  0  0
    8.8941   -0.1410    0.0000 C   0  0  1  0  0  0  0  0  0  0  0  0
    8.8780    2.9005    0.0000 C   0  0  2  0  0  0  0  0  0  0  0  0
    7.9961   -0.6688    0.0000 C   0  0  0  0  0  0  0  0  0  0  0  0
    6.3039    1.5314    0.0000 C   0  0  2  0  0  0  0  0  0  0  0  0
   10.6903    2.7052    0.0000 C   0  0  1  0  0  0  0  0  0  0  0  0
    6.2861   -0.7733    0.0000 C   0  0  1  0  0  0  0  0  0  0  0  0
    7.1097    1.8936    0.0000 C   0  0  0  0  0  0  0  0  0  0  0  0
   11.2739    1.9005    0.0000 C   0  0  0  0  0  0  0  0  0  0  0  0
   10.6903    1.0958    0.0000 C   0  0  0  0  0  0  0  0  0  0  0  0
    9.7441    3.4005    0.0000 C   0  0  0  0  0  0  0  0  0  0  0  0
    5.3071    1.3077    0.0000 C   0  0  0  0  0  0  0  0  0  0  0  0
    6.0509   -1.7453    0.0000 C   0  0  0  0  0  0  0  0  0  0  0  0
    6.8993   -1.5633    0.0000 C   0  0  0  0  0  0  0  0  0  0  0  0
   11.0010    3.6557    0.0000 C   0  0  0  0  0  0  0  0  0  0  0  0
    4.8580    0.3901    0.0000 C   0  0  0  0  0  0  0  0  0  0  0  0
    9.7774   -1.6309    0.0000 C   0  0  0  0  0  0  0  0  0  0  0  0
   11.9525    3.9631    0.0000 C   0  0  0  0  0  0  0  0  0  0  0  0
   10.4146    4.4658    0.0000 C   0  0  0  0  0  0  0  0  0  0  0  0
    8.0120    4.4005    0.0000 C   0  0  0  0  0  0  0  0  0  0  0  0
    5.7972    3.1877    0.0000 C   0  0  0  0  0  0  0  0  0  0  0  0
   10.6492   -2.1209    0.0000 C   0  0  3  0  0  0  0  0  0  0  0  0
   11.9543    4.9631    0.0000 C   0  0  0  0  0  0  0  0  0  0  0  0
    8.0120    5.4005    0.0000 C   0  0  0  0  0  0  0  0  0  0  0  0
    4.8563   -2.9994    0.0000 C   0  0  0  0  0  0  0  0  0  0  0  0
    4.8410    2.8951    0.0000 C   0  0  0  0  0  0  0  0  0  0  0  0
   10.6607   -3.1208    0.0000 C   0  0  0  0  0  0  0  0  0  0  0  0
    3.8969   -3.2816    0.0000 C   0  0  3  0  0  0  0  0  0  0  0  0
   11.5325   -3.6108    0.0000 C   0  0  0  0  0  0  0  0  0  0  0  0
    9.8005   -3.6308    0.0000 C   0  0  0  0  0  0  0  0  0  0  0  0
    3.6616   -4.2536    0.0000 C   0  0  3  0  0  0  0  0  0  0  0  0
    2.6897   -4.0183    0.0000 C   0  0  0  0  0  0  0  0  0  0  0  0
    4.6336   -4.4888    0.0000 C   0  0  0  0  0  0  0  0  0  0  0  0
    2.0000   -4.7424    0.0000 C   0  0  0  0  0  0  0  0  0  0  0  0
    8.7481    1.8255    0.0000 H   0  0  0  0  0  0  0  0  0  0  0  0
    9.6174    0.4812    0.0000 H   0  0  0  0  0  0  0  0  0  0  0  0
    7.1514   -0.9960    0.0000 H   0  0  0  0  0  0  0  0  0  0  0  0
    7.8000    2.9831    0.0000 H   0  0  0  0  0  0  0  0  0  0  0  0
    7.4014    2.2928    0.0000 H   0  0  0  0  0  0  0  0  0  0  0  0
    8.9001   -0.7610    0.0000 H   0  0  0  0  0  0  0  0  0  0  0  0
    8.3411    3.2105    0.0000 H   0  0  0  0  0  0  0  0  0  0  0  0
    7.5988   -1.1448    0.0000 H   0  0  0  0  0  0  0  0  0  0  0  0
    8.3970   -1.1417    0.0000 H   0  0  0  0  0  0  0  0  0  0  0  0
    5.8668    1.9711    0.0000 H   0  0  0  0  0  0  0  0  0  0  0  0
   11.3028    2.8014    0.0000 H   0  0  0  0  0  0  0  0  0  0  0  0
    7.7297    1.8888    0.0000 H   0  0  0  0  0  0  0  0  0  0  0  0
    7.1145    2.5136    0.0000 H   0  0  0  0  0  0  0  0  0  0  0  0
    6.4897    1.8984    0.0000 H   0  0  0  0  0  0  0  0  0  0  0  0
   11.7348    1.4857    0.0000 H   0  0  0  0  0  0  0  0  0  0  0  0
   11.7348    2.3152    0.0000 H   0  0  0  0  0  0  0  0  0  0  0  0
   10.8829    0.5064    0.0000 H   0  0  0  0  0  0  0  0  0  0  0  0
   10.3641    3.4005    0.0000 H   0  0  0  0  0  0  0  0  0  0  0  0
    9.7441    4.0205    0.0000 H   0  0  0  0  0  0  0  0  0  0  0  0
    9.1241    3.4005    0.0000 H   0  0  0  0  0  0  0  0  0  0  0  0
    5.3099    1.9277    0.0000 H   0  0  0  0  0  0  0  0  0  0  0  0
    4.7034    1.4490    0.0000 H   0  0  0  0  0  0  0  0  0  0  0  0
    6.1199   -2.3614    0.0000 H   0  0  0  0  0  0  0  0  0  0  0  0
    6.6696   -1.7843    0.0000 H   0  0  0  0  0  0  0  0  0  0  0  0
    6.4096   -1.9434    0.0000 H   0  0  0  0  0  0  0  0  0  0  0  0
    7.2795   -2.0530    0.0000 H   0  0  0  0  0  0  0  0  0  0  0  0
    7.3891   -1.1831    0.0000 H   0  0  0  0  0  0  0  0  0  0  0  0
   12.4535    3.5978    0.0000 H   0  0  0  0  0  0  0  0  0  0  0  0
    9.7946    4.4668    0.0000 H   0  0  0  0  0  0  0  0  0  0  0  0
   10.6420   -1.5009    0.0000 H   0  0  0  0  0  0  0  0  0  0  0  0
   12.4565    5.3267    0.0000 H   0  0  0  0  0  0  0  0  0  0  0  0
    8.6320    5.4005    0.0000 H   0  0  0  0  0  0  0  0  0  0  0  0
    8.0120    6.0205    0.0000 H   0  0  0  0  0  0  0  0  0  0  0  0
    7.3920    5.4005    0.0000 H   0  0  0  0  0  0  0  0  0  0  0  0
    4.6596    3.4880    0.0000 H   0  0  0  0  0  0  0  0  0  0  0  0
    4.2481    2.7138    0.0000 H   0  0  0  0  0  0  0  0  0  0  0  0
    5.0223    2.3023    0.0000 H   0  0  0  0  0  0  0  0  0  0  0  0
   10.6679   -3.7408    0.0000 H   0  0  0  0  0  0  0  0  0  0  0  0
    4.0428   -2.6790    0.0000 H   0  0  0  0  0  0  0  0  0  0  0  0
   12.0498   -1.9146    0.0000 H   0  0  0  0  0  0  0  0  0  0  0  0
   11.2287   -4.1512    0.0000 H   0  0  0  0  0  0  0  0  0  0  0  0
   12.0730   -3.9145    0.0000 H   0  0  0  0  0  0  0  0  0  0  0  0
   11.8362   -3.0703    0.0000 H   0  0  0  0  0  0  0  0  0  0  0  0
    9.4843   -3.0975    0.0000 H   0  0  0  0  0  0  0  0  0  0  0  0
    9.2672   -3.9470    0.0000 H   0  0  0  0  0  0  0  0  0  0  0  0
   10.1167   -4.1641    0.0000 H   0  0  0  0  0  0  0  0  0  0  0  0
    2.5780   -2.7669    0.0000 H   0  0  0  0  0  0  0  0  0  0  0  0
    2.9380   -3.4502    0.0000 H   0  0  0  0  0  0  0  0  0  0  0  0
    2.1733   -3.6751    0.0000 H   0  0  0  0  0  0  0  0  0  0  0  0
    4.4877   -5.0914    0.0000 H   0  0  0  0  0  0  0  0  0  0  0  0
    5.2362   -4.6347    0.0000 H   0  0  0  0  0  0  0  0  0  0  0  0
    4.7794   -3.8862    0.0000 H   0  0  0  0  0  0  0  0  0  0  0  0
    2.8316   -5.4005    0.0000 H   0  0  0  0  0  0  0  0  0  0  0  0
    1.5511   -4.3148    0.0000 H   0  0  0  0  0  0  0  0  0  0  0  0
    1.5724   -5.1913    0.0000 H   0  0  0  0  0  0  0  0  0  0  0  0
    2.4489   -5.1700    0.0000 H   0  0  0  0  0  0  0  0  0  0  0  0
 22  1  1  6  0  0  0
  1 37  1  0  0  0  0
  2 27  1  0  0  0  0
  2 36  1  0  0  0  0
 23  3  1  6  0  0  0
  3 40  1  0  0  0  0
 25  4  1  6  0  0  0
  4 41  1  0  0  0  0
  5 33  1  0  0  0  0
  5 45  1  0  0  0  0
  6 36  2  0  0  0  0
  7 39  1  0  0  0  0
  7 43  1  0  0  0  0
  8 37  2  0  0  0  0
  9 40  2  0  0  0  0
 10 41  2  0  0  0  0
 11 42  1  0  0  0  0
 11 94  1  0  0  0  0
 12 45  2  0  0  0  0
 13 48  1  0  0  0  0
 13101  1  0  0  0  0
 14 51  1  0  0  0  0
 14107  1  0  0  0  0
 15 16  1  0  0  0  0
 15 17  1  0  0  0  0
 15 21  1  0  0  0  0
 15 55  1  6  0  0  0
 16 18  1  0  0  0  0
 16 25  1  0  0  0  0
 16 28  1  1  0  0  0
 17 20  1  0  0  0  0
 17 22  1  0  0  0  0
 17 56  1  1  0  0  0
 18 24  1  0  0  0  0
 18 27  1  0  0  0  0
 18 57  1  6  0  0  0
 19 20  1  0  0  0  0
 19 23  1  0  0  0  0
 19 26  1  0  0  0  0
 19 31  1  6  0  0  0
 20 30  2  0  0  0  0
 21 23  1  0  0  0  0
 21 58  1  0  0  0  0
 21 59  1  0  0  0  0
 22 24  1  0  0  0  0
 22 60  1  0  0  0  0
 23 61  1  0  0  0  0
 24 62  1  0  0  0  0
 24 63  1  0  0  0  0
 25 32  1  0  0  0  0
 25 64  1  0  0  0  0
 26 29  1  0  0  0  0
 26 35  1  6  0  0  0
 26 65  1  0  0  0  0
 27 33  1  0  0  0  0
 27 34  1  6  0  0  0
 28 66  1  0  0  0  0
 28 67  1  0  0  0  0
 28 68  1  0  0  0  0
 29 30  1  0  0  0  0
 29 69  1  0  0  0  0
 29 70  1  0  0  0  0
 30 71  1  0  0  0  0
 31 72  1  0  0  0  0
 31 73  1  0  0  0  0
 31 74  1  0  0  0  0
 32 36  1  0  0  0  0
 32 75  1  0  0  0  0
 32 76  1  0  0  0  0
 33 77  1  0  0  0  0
 33 78  1  0  0  0  0
 34 79  1  0  0  0  0
 34 80  1  0  0  0  0
 34 81  1  0  0  0  0
 35 38  1  0  0  0  0
 35 39  2  0  0  0  0
 37 42  1  0  0  0  0
 38 43  2  0  0  0  0
 38 82  1  0  0  0  0
 39 83  1  0  0  0  0
 40 44  1  0  0  0  0
 41 46  1  0  0  0  0
 42 47  1  0  0  0  0
 42 84  1  0  0  0  0
 43 85  1  0  0  0  0
 44 86  1  0  0  0  0
 44 87  1  0  0  0  0
 44 88  1  0  0  0  0
 45 48  1  0  0  0  0
 46 89  1  0  0  0  0
 46 90  1  0  0  0  0
 46 91  1  0  0  0  0
 47 49  1  0  0  0  0
 47 50  1  0  0  0  0
 47 92  1  0  0  0  0
 48 51  1  0  0  0  0
 48 93  1  0  0  0  0
 49 95  1  0  0  0  0
 49 96  1  0  0  0  0
 49 97  1  0  0  0  0
 50 98  1  0  0  0  0
 50 99  1  0  0  0  0
 50100  1  0  0  0  0
 51 52  1  0  0  0  0
 51 53  1  0  0  0  0
 52 54  1  0  0  0  0
 52102  1  0  0  0  0
 52103  1  0  0  0  0
 53104  1  0  0  0  0
 53105  1  0  0  0  0
 53106  1  0  0  0  0
 54108  1  0  0  0  0
 54109  1  0  0  0  0
 54110  1  0  0  0  0
M  END
> <PUBCHEM_COMPOUND_CID>
101864675

> <PUBCHEM_COMPOUND_CANONICALIZED>
1

> <PUBCHEM_CACTVS_COMPLEXITY>
1510

> <PUBCHEM_CACTVS_HBOND_ACCEPTOR>
14

> <PUBCHEM_CACTVS_HBOND_DONOR>
3

> <PUBCHEM_CACTVS_ROTATABLE_BOND>
15

> <PUBCHEM_CACTVS_SUBSKEYS>
AAADcfB8PAAAAAAAAAAAAAAAAAAAASIAAAAwYAAABIAAAEDBgAAAGgAACAAAD1SgmAIyDIAABkCIAijSiAICCAAkIAAIiAFGCMgNNhYENQqCWSCl4BELKYPI7PzPgAAAAAAAAADAAAYAADAAAAAAAAAAAA==

> <PUBCHEM_IUPAC_OPENEYE_NAME>
[(1S,2R,3S,7S,8R,10R,11R,15S,16S,17S)-3,17-diacetoxy-15-(3-furyl)-10-(2-hydroxy-3-methyl-butanoyl)oxy-2,7,16-trimethyl-5-oxo-6-oxatetracyclo[9.7.0.02,8.012,16]octadec-12-en-7-yl]methyl 2,3-dihydroxy-3-methyl-pentanoate

> <PUBCHEM_IUPAC_CAS_NAME>
2,3-dihydroxy-3-methylpentanoic acid [(1S,2R,3S,7S,8R,10R,11R,15S,16S,17S)-3,17-diacetyloxy-15-(3-furanyl)-10-(2-hydroxy-3-methyl-1-oxobutoxy)-2,7,16-trimethyl-5-oxo-6-oxatetracyclo[9.7.0.02,8.012,16]octadec-12-en-7-yl]methyl ester

> <PUBCHEM_IUPAC_NAME_MARKUP>
[(1<I>S</I>,2<I>R</I>,3<I>S</I>,7<I>S</I>,8<I>R</I>,10<I>R</I>,11<I>R</I>,15<I>S</I>,16<I>S</I>,17<I>S</I>)-3,17-diacetyloxy-15-(furan-3-yl)-10-(2-hydroxy-3-methylbutanoyl)oxy-2,7,16-trimethyl-5-oxo-6-oxatetracyclo[9.7.0.0<SUP>2,8</SUP>.0<SUP>12,16</SUP>]octadec-12-en-7-yl]methyl 2,3-dihydroxy-3-methylpentanoate

> <PUBCHEM_IUPAC_NAME>
[(1S,2R,3S,7S,8R,10R,11R,15S,16S,17S)-3,17-diacetyloxy-15-(furan-3-yl)-10-(2-hydroxy-3-methylbutanoyl)oxy-2,7,16-trimethyl-5-oxo-6-oxatetracyclo[9.7.0.02,8.012,16]octadec-12-en-7-yl]methyl 2,3-dihydroxy-3-methylpentanoate

> <PUBCHEM_IUPAC_SYSTEMATIC_NAME>
[(1S,2R,3S,7S,8R,10R,11R,15S,16S,17S)-3,17-diacetyloxy-15-(furan-3-yl)-2,7,16-trimethyl-10-(3-methyl-2-oxidanyl-butanoyl)oxy-5-oxidanylidene-6-oxatetracyclo[9.7.0.02,8.012,16]octadec-12-en-7-yl]methyl 3-methyl-2,3-bis(oxidanyl)pentanoate

> <PUBCHEM_IUPAC_TRADITIONAL_NAME>
2,3-dihydroxy-3-methyl-valeric acid [(1S,2R,3S,7S,8R,10R,11R,15S,16S,17S)-3,17-diacetoxy-15-(3-furyl)-10-(2-hydroxy-3-methyl-butanoyl)oxy-5-keto-2,7,16-trimethyl-6-oxatetracyclo[9.7.0.02,8.012,16]octadec-12-en-7-yl]methyl ester

> <PUBCHEM_IUPAC_INCHI>
InChI=1S/C40H56O14/c1-10-37(6,48)34(45)36(47)50-19-38(7)28-16-27(53-35(46)33(44)20(2)3)32-25-12-11-24(23-13-14-49-18-23)39(25,8)29(51-21(4)41)15-26(32)40(28,9)30(52-22(5)42)17-31(43)54-38/h12-14,18,20,24,26-30,32-34,44-45,48H,10-11,15-17,19H2,1-9H3/t24-,26-,27+,28-,29-,30-,32-,33?,34?,37?,38+,39-,40+/m0/s1

> <PUBCHEM_IUPAC_INCHIKEY>
DHDFMYMEMJTHPD-PNVOQRBFSA-N

> <PUBCHEM_XLOGP3_AA>
3.7

> <PUBCHEM_EXACT_MASS>
760.367006

> <PUBCHEM_MOLECULAR_FORMULA>
C40H56O14

> <PUBCHEM_MOLECULAR_WEIGHT>
760.9

> <PUBCHEM_OPENEYE_CAN_SMILES>
CCC(C)(C(C(=O)OCC1(C2CC(C3C(C2(C(CC(=O)O1)OC(=O)C)C)CC(C4(C3=CCC4C5=COC=C5)C)OC(=O)C)OC(=O)C(C(C)C)O)C)O)O

> <PUBCHEM_OPENEYE_ISO_SMILES>
CCC(C)(C(C(=O)OC[C@@]1([C@@H]2C[C@H]([C@@H]3[C@@H]([C@]2([C@H](CC(=O)O1)OC(=O)C)C)C[C@@H]([C@@]4(C3=CC[C@H]4C5=COC=C5)C)OC(=O)C)OC(=O)C(C(C)C)O)C)O)O

> <PUBCHEM_CACTVS_TPSA>
205

> <PUBCHEM_MONOISOTOPIC_WEIGHT>
760.367006

> <PUBCHEM_TOTAL_CHARGE>
0

> <PUBCHEM_HEAVY_ATOM_COUNT>
54

> <PUBCHEM_ATOM_DEF_STEREO_COUNT>
10

> <PUBCHEM_ATOM_UDEF_STEREO_COUNT>
3

> <PUBCHEM_BOND_DEF_STEREO_COUNT>
0

> <PUBCHEM_BOND_UDEF_STEREO_COUNT>
0

> <PUBCHEM_ISOTOPIC_ATOM_COUNT>
0

> <PUBCHEM_COMPONENT_COUNT>
1

> <PUBCHEM_CACTVS_TAUTO_COUNT>
-1

> <PUBCHEM_COORDINATE_TYPE>
1
5
255

> <PUBCHEM_BONDANNOTATIONS>
22  1  6
42  11  3
48  13  3
51  14  3
15  55  6
16  28  5
17  56  5
18  57  6
19  31  6
26  35  6
27  34  6
23  3  6
35  38  8
35  39  8
38  43  8
25  4  6
7  39  8
7  43  8

$$$$
