10798883
  -OEChem-08292013573D

 38 39  0     1  0  0  0  0  0999 V2000
    0.2122   -3.1990   -0.6667 O   0  0  0  0  0  0  0  0  0  0  0  0
   -1.2876    0.7172   -0.6254 C   0  0  2  0  0  0  0  0  0  0  0  0
   -2.2490   -0.4243   -0.2587 C   0  0  0  0  0  0  0  0  0  0  0  0
   -0.3723   -2.0870    0.0243 C   0  0  2  0  0  0  0  0  0  0  0  0
   -1.6872   -1.7643   -0.7000 C   0  0  0  0  0  0  0  0  0  0  0  0
    0.1677    0.4004   -0.3017 C   0  0  0  0  0  0  0  0  0  0  0  0
   -1.8009    2.0053    0.0343 C   0  0  0  0  0  0  0  0  0  0  0  0
    0.5988   -0.9157   -0.0168 C   0  0  0  0  0  0  0  0  0  0  0  0
   -0.6194   -2.5182    1.4779 C   0  0  0  0  0  0  0  0  0  0  0  0
    1.1320    1.4256   -0.3609 C   0  0  0  0  0  0  0  0  0  0  0  0
   -3.2405    2.2543   -0.3761 C   0  0  0  0  0  0  0  0  0  0  0  0
   -1.6592    1.9024    1.5418 C   0  0  0  0  0  0  0  0  0  0  0  0
    1.9627   -1.1465    0.2581 C   0  0  0  0  0  0  0  0  0  0  0  0
    2.4783    1.1747   -0.0951 C   0  0  0  0  0  0  0  0  0  0  0  0
    2.8930   -0.1108    0.2218 C   0  0  0  0  0  0  0  0  0  0  0  0
    3.4713    2.2858   -0.1569 C   0  0  0  0  0  0  0  0  0  0  0  0
   -1.3267    0.8433   -1.7175 H   0  0  0  0  0  0  0  0  0  0  0  0
   -3.2094   -0.2944   -0.7710 H   0  0  0  0  0  0  0  0  0  0  0  0
   -2.4684   -0.4812    0.8100 H   0  0  0  0  0  0  0  0  0  0  0  0
   -2.4227   -2.5599   -0.5255 H   0  0  0  0  0  0  0  0  0  0  0  0
   -1.5242   -1.7537   -1.7869 H   0  0  0  0  0  0  0  0  0  0  0  0
   -1.2167    2.8648   -0.3127 H   0  0  0  0  0  0  0  0  0  0  0  0
   -1.3428   -3.3405    1.5229 H   0  0  0  0  0  0  0  0  0  0  0  0
    0.2996   -2.8981    1.9400 H   0  0  0  0  0  0  0  0  0  0  0  0
   -0.9906   -1.6964    2.0987 H   0  0  0  0  0  0  0  0  0  0  0  0
    0.8418    2.4368   -0.6341 H   0  0  0  0  0  0  0  0  0  0  0  0
   -3.3701    2.1822   -1.4613 H   0  0  0  0  0  0  0  0  0  0  0  0
   -3.5369    3.2689   -0.0841 H   0  0  0  0  0  0  0  0  0  0  0  0
   -3.9511    1.5784    0.1102 H   0  0  0  0  0  0  0  0  0  0  0  0
   -0.6461    1.6552    1.8702 H   0  0  0  0  0  0  0  0  0  0  0  0
   -1.8964    2.8750    1.9910 H   0  0  0  0  0  0  0  0  0  0  0  0
   -2.3510    1.1899    1.9995 H   0  0  0  0  0  0  0  0  0  0  0  0
    2.3122   -2.1477    0.5009 H   0  0  0  0  0  0  0  0  0  0  0  0
   -0.4081   -3.9461   -0.6118 H   0  0  0  0  0  0  0  0  0  0  0  0
    3.9372   -0.3251    0.4327 H   0  0  0  0  0  0  0  0  0  0  0  0
    4.3477    2.0731    0.4648 H   0  0  0  0  0  0  0  0  0  0  0  0
    3.8045    2.4350   -1.1887 H   0  0  0  0  0  0  0  0  0  0  0  0
    3.0361    3.2206    0.2127 H   0  0  0  0  0  0  0  0  0  0  0  0
  1  4  1  0  0  0  0
  1 34  1  0  0  0  0
  2  3  1  0  0  0  0
  2  6  1  0  0  0  0
  2  7  1  0  0  0  0
  2 17  1  0  0  0  0
  3  5  1  0  0  0  0
  3 18  1  0  0  0  0
  3 19  1  0  0  0  0
  4  5  1  0  0  0  0
  4  8  1  0  0  0  0
  4  9  1  0  0  0  0
  5 20  1  0  0  0  0
  5 21  1  0  0  0  0
  6  8  2  0  0  0  0
  6 10  1  0  0  0  0
  7 11  1  0  0  0  0
  7 12  1  0  0  0  0
  7 22  1  0  0  0  0
  8 13  1  0  0  0  0
  9 23  1  0  0  0  0
  9 24  1  0  0  0  0
  9 25  1  0  0  0  0
 10 14  2  0  0  0  0
 10 26  1  0  0  0  0
 11 27  1  0  0  0  0
 11 28  1  0  0  0  0
 11 29  1  0  0  0  0
 12 30  1  0  0  0  0
 12 31  1  0  0  0  0
 12 32  1  0  0  0  0
 13 15  2  0  0  0  0
 13 33  1  0  0  0  0
 14 15  1  0  0  0  0
 14 16  1  0  0  0  0
 15 35  1  0  0  0  0
 16 36  1  0  0  0  0
 16 37  1  0  0  0  0
 16 38  1  0  0  0  0
M  END
> <PUBCHEM_COMPOUND_CID>
10798883

> <PUBCHEM_CONFORMER_RMSD>
0.6

> <PUBCHEM_CONFORMER_DIVERSEORDER>
1
2

> <PUBCHEM_MMFF94_PARTIAL_CHARGES>
14
1 -0.68
10 -0.15
13 -0.15
14 -0.14
15 -0.15
16 0.14
2 0.14
26 0.15
33 0.15
34 0.4
35 0.15
4 0.42
6 -0.14
8 -0.14

> <PUBCHEM_EFFECTIVE_ROTOR_COUNT>
1.8

> <PUBCHEM_PHARMACOPHORE_FEATURES>
5
1 1 acceptor
1 1 donor
3 7 11 12 hydrophobe
6 2 3 4 5 6 8 rings
6 6 8 10 13 14 15 rings

> <PUBCHEM_HEAVY_ATOM_COUNT>
16

> <PUBCHEM_ATOM_DEF_STEREO_COUNT>
2

> <PUBCHEM_ATOM_UDEF_STEREO_COUNT>
0

> <PUBCHEM_BOND_DEF_STEREO_COUNT>
0

> <PUBCHEM_BOND_UDEF_STEREO_COUNT>
0

> <PUBCHEM_ISOTOPIC_ATOM_COUNT>
0

> <PUBCHEM_COMPONENT_COUNT>
1

> <PUBCHEM_CACTVS_TAUTO_COUNT>
1

> <PUBCHEM_CONFORMER_ID>
00A4C72300000001

> <PUBCHEM_MMFF94_ENERGY>
48.4622

> <PUBCHEM_FEATURE_SELFOVERLAP>
25.391

> <PUBCHEM_SHAPE_FINGERPRINT>
1 1 18192148192048706981
108231 29 17109318741668761362
10967382 1 18050564036969523548
12491281 212 18408326609544607408
13027679 85 17546168961895750005
13140716 1 18336541608227408000
13172582 1 18119517752747905402
13380535 76 18337384925224470679
14614273 12 18043516416638690820
14617773 55 18271513273608917127
14817 1 14725171185425254209
15076042 46 18339078297611548118
15309172 13 18335991856708668984
15490181 8 18411137996109728030
15775835 57 18334860463538557444
16945 1 18193548106695191420
193761 8 18339077082199418879
19868273 325 17692532629759851110
20510252 161 18270120252427043281
20645477 70 17905319629626445645
21029758 11 17691960888098214711
21041028 32 17325786162644341435
21501502 16 18337103557880483172
21524375 3 18337669711336162365
21731228 192 18409453557101736600
2334 1 18409727374225676276
23402539 116 17913204553325309823
23557571 272 17766012966475185868
23558518 356 18334856147228183174
23559900 14 18271536308758047436
238 59 17467310501877602445
2748010 2 18409170986913497236
31174 14 17616279999841859033
350125 39 18410581677612088004
353137 74 18263914608773319765
430814 3 18199180681452336105
528862 383 17904757778704136161
5845 1 17268665343885798181
5939293 188 17401479356293515869
63268167 104 17907296546625899833
7364860 26 17909264685292716445
81228 2 18120942955819385616
8272917 22 17836368151420601213

> <PUBCHEM_SHAPE_MULTIPOLES>
323.4
4.35
3.5
1.01
1.94
1.25
-0.37
-3.51
0.22
-0.94
-0.25
-0.43
0.13
-0.26

> <PUBCHEM_SHAPE_SELFOVERLAP>
678.327

> <PUBCHEM_SHAPE_VOLUME>
184.5

> <PUBCHEM_COORDINATE_TYPE>
2
5
10

$$$$
