124214
  -OEChem-08292012593D

 84 88  0     1  0  0  0  0  0999 V2000
    6.1040   -0.7892    1.4641 O   0  0  0  0  0  0  0  0  0  0  0  0
    4.3295   -2.6719   -1.0889 O   0  0  0  0  0  0  0  0  0  0  0  0
   -3.4587   -1.9931   -1.3006 O   0  0  0  0  0  0  0  0  0  0  0  0
    7.0841    1.4086   -0.0039 O   0  0  0  0  0  0  0  0  0  0  0  0
   -4.1422    3.3124    0.3309 O   0  0  0  0  0  0  0  0  0  0  0  0
   -2.9915    2.0842    1.8682 O   0  0  0  0  0  0  0  0  0  0  0  0
    0.5194    0.8192   -0.1715 C   0  0  2  0  0  0  0  0  0  0  0  0
    1.2361   -0.4474    0.4327 C   0  0  1  0  0  0  0  0  0  0  0  0
    2.8062   -0.3659    0.7060 C   0  0  2  0  0  0  0  0  0  0  0  0
   -0.9428    0.3386   -0.7290 C   0  0  1  0  0  0  0  0  0  0  0  0
    3.4914    0.2426   -0.5649 C   0  0  1  0  0  0  0  0  0  0  0  0
    1.3864    1.4425   -1.2995 C   0  0  0  0  0  0  0  0  0  0  0  0
   -1.7299   -0.3327    0.4187 C   0  0  0  0  0  0  0  0  0  0  0  0
    2.8650    1.5996   -0.9463 C   0  0  0  0  0  0  0  0  0  0  0  0
    5.0721    0.2417   -0.5619 C   0  0  2  0  0  0  0  0  0  0  0  0
   -3.2640   -0.2877    0.4693 C   0  0  1  0  0  0  0  0  0  0  0  0
    0.4083   -1.0265    1.6047 C   0  0  0  0  0  0  0  0  0  0  0  0
    3.3365   -1.8289    0.9366 C   0  0  0  0  0  0  0  0  0  0  0  0
   -1.7039    1.5390   -1.3633 C   0  0  0  0  0  0  0  0  0  0  0  0
   -3.8649    1.0089   -0.1358 C   0  0  1  0  0  0  0  0  0  0  0  0
    0.3287    1.9287    0.9122 C   0  0  0  0  0  0  0  0  0  0  0  0
   -3.2206    1.3549   -1.4869 C   0  0  0  0  0  0  0  0  0  0  0  0
    5.6443   -1.0402    0.1373 C   0  0  2  0  0  0  0  0  0  0  0  0
   -1.0804   -0.9472    1.4296 C   0  0  0  0  0  0  0  0  0  0  0  0
    4.6427   -2.1926    0.2172 C   0  0  2  0  0  0  0  0  0  0  0  0
    3.1473    0.4422    1.9824 C   0  0  0  0  0  0  0  0  0  0  0  0
   -0.8035   -0.7367   -1.8526 C   0  0  0  0  0  0  0  0  0  0  0  0
   -3.9208   -1.6174   -0.0076 C   0  0  1  0  0  0  0  0  0  0  0  0
   -5.4061    0.9605   -0.2455 C   0  0  0  0  0  0  0  0  0  0  0  0
   -5.4740   -1.5858    0.0099 C   0  0  0  0  0  0  0  0  0  0  0  0
    5.6793    1.5306    0.0375 C   0  0  0  0  0  0  0  0  0  0  0  0
    5.5464    0.2076   -2.0456 C   0  0  0  0  0  0  0  0  0  0  0  0
   -5.9759   -0.3528   -0.7700 C   0  0  0  0  0  0  0  0  0  0  0  0
   -3.6023    2.1664    0.8129 C   0  0  0  0  0  0  0  0  0  0  0  0
   -6.0506   -2.8530   -0.6592 C   0  0  0  0  0  0  0  0  0  0  0  0
   -5.9956   -1.5590    1.4629 C   0  0  0  0  0  0  0  0  0  0  0  0
    1.1772   -1.2045   -0.3611 H   0  0  0  0  0  0  0  0  0  0  0  0
    3.2041   -0.4313   -1.3874 H   0  0  0  0  0  0  0  0  0  0  0  0
    0.9891    2.4247   -1.5845 H   0  0  0  0  0  0  0  0  0  0  0  0
    1.3499    0.8384   -2.2085 H   0  0  0  0  0  0  0  0  0  0  0  0
    3.3661    2.0124   -1.8289 H   0  0  0  0  0  0  0  0  0  0  0  0
    2.9911    2.3432   -0.1545 H   0  0  0  0  0  0  0  0  0  0  0  0
   -3.5191   -0.2511    1.5401 H   0  0  0  0  0  0  0  0  0  0  0  0
    0.6305   -0.5039    2.5388 H   0  0  0  0  0  0  0  0  0  0  0  0
    0.6748   -2.0773    1.7637 H   0  0  0  0  0  0  0  0  0  0  0  0
    2.5833   -2.5610    0.6197 H   0  0  0  0  0  0  0  0  0  0  0  0
    3.4714   -1.9974    2.0133 H   0  0  0  0  0  0  0  0  0  0  0  0
   -1.3003    1.7441   -2.3639 H   0  0  0  0  0  0  0  0  0  0  0  0
   -1.5414    2.4608   -0.8023 H   0  0  0  0  0  0  0  0  0  0  0  0
   -0.3397    1.6315    1.7228 H   0  0  0  0  0  0  0  0  0  0  0  0
    1.2668    2.2211    1.3779 H   0  0  0  0  0  0  0  0  0  0  0  0
   -0.0680    2.8558    0.4892 H   0  0  0  0  0  0  0  0  0  0  0  0
   -3.6441    2.2767   -1.9064 H   0  0  0  0  0  0  0  0  0  0  0  0
   -3.4431    0.5723   -2.2206 H   0  0  0  0  0  0  0  0  0  0  0  0
    6.5255   -1.3829   -0.4201 H   0  0  0  0  0  0  0  0  0  0  0  0
   -1.6588   -1.4054    2.2295 H   0  0  0  0  0  0  0  0  0  0  0  0
    5.0889   -3.0379    0.7560 H   0  0  0  0  0  0  0  0  0  0  0  0
    2.5228    0.1651    2.8342 H   0  0  0  0  0  0  0  0  0  0  0  0
    4.1699    0.2629    2.3180 H   0  0  0  0  0  0  0  0  0  0  0  0
    3.0674    1.5198    1.8480 H   0  0  0  0  0  0  0  0  0  0  0  0
   -0.5645   -1.7309   -1.4592 H   0  0  0  0  0  0  0  0  0  0  0  0
   -1.7258   -0.8427   -2.4296 H   0  0  0  0  0  0  0  0  0  0  0  0
   -0.0436   -0.4876   -2.5944 H   0  0  0  0  0  0  0  0  0  0  0  0
   -3.5828   -2.4151    0.6687 H   0  0  0  0  0  0  0  0  0  0  0  0
   -5.7686    1.7676   -0.8968 H   0  0  0  0  0  0  0  0  0  0  0  0
   -5.8604    1.1622    0.7344 H   0  0  0  0  0  0  0  0  0  0  0  0
    5.3750    1.7141    1.0699 H   0  0  0  0  0  0  0  0  0  0  0  0
    5.4111    2.4169   -0.5458 H   0  0  0  0  0  0  0  0  0  0  0  0
    6.6367    0.1299   -2.1264 H   0  0  0  0  0  0  0  0  0  0  0  0
    5.1267   -0.6493   -2.5829 H   0  0  0  0  0  0  0  0  0  0  0  0
    5.2486    1.1101   -2.5895 H   0  0  0  0  0  0  0  0  0  0  0  0
   -7.0718   -0.3045   -0.7344 H   0  0  0  0  0  0  0  0  0  0  0  0
   -5.7101   -0.4518   -1.8305 H   0  0  0  0  0  0  0  0  0  0  0  0
   -5.8139   -2.8972   -1.7279 H   0  0  0  0  0  0  0  0  0  0  0  0
   -7.1433   -2.8795   -0.5732 H   0  0  0  0  0  0  0  0  0  0  0  0
   -5.6582   -3.7607   -0.1873 H   0  0  0  0  0  0  0  0  0  0  0  0
   -5.6404   -0.6926    2.0273 H   0  0  0  0  0  0  0  0  0  0  0  0
   -5.6759   -2.4548    2.0076 H   0  0  0  0  0  0  0  0  0  0  0  0
   -7.0912   -1.5330    1.4852 H   0  0  0  0  0  0  0  0  0  0  0  0
    6.5134   -1.6057    1.7974 H   0  0  0  0  0  0  0  0  0  0  0  0
    5.1630   -2.9457   -1.5083 H   0  0  0  0  0  0  0  0  0  0  0  0
   -3.5801   -2.9527   -1.3964 H   0  0  0  0  0  0  0  0  0  0  0  0
    7.3536    0.7849    0.6911 H   0  0  0  0  0  0  0  0  0  0  0  0
   -3.9828    4.0725    0.9301 H   0  0  0  0  0  0  0  0  0  0  0  0
  1 23  1  0  0  0  0
  1 80  1  0  0  0  0
  2 25  1  0  0  0  0
  2 81  1  0  0  0  0
  3 28  1  0  0  0  0
  3 82  1  0  0  0  0
  4 31  1  0  0  0  0
  4 83  1  0  0  0  0
  5 34  1  0  0  0  0
  5 84  1  0  0  0  0
  6 34  2  0  0  0  0
  7  8  1  0  0  0  0
  7 10  1  0  0  0  0
  7 12  1  0  0  0  0
  7 21  1  0  0  0  0
  8  9  1  0  0  0  0
  8 17  1  0  0  0  0
  8 37  1  0  0  0  0
  9 11  1  0  0  0  0
  9 18  1  0  0  0  0
  9 26  1  0  0  0  0
 10 13  1  0  0  0  0
 10 19  1  0  0  0  0
 10 27  1  0  0  0  0
 11 14  1  0  0  0  0
 11 15  1  0  0  0  0
 11 38  1  0  0  0  0
 12 14  1  0  0  0  0
 12 39  1  0  0  0  0
 12 40  1  0  0  0  0
 13 16  1  0  0  0  0
 13 24  2  0  0  0  0
 14 41  1  0  0  0  0
 14 42  1  0  0  0  0
 15 23  1  0  0  0  0
 15 31  1  0  0  0  0
 15 32  1  0  0  0  0
 16 20  1  0  0  0  0
 16 28  1  0  0  0  0
 16 43  1  0  0  0  0
 17 24  1  0  0  0  0
 17 44  1  0  0  0  0
 17 45  1  0  0  0  0
 18 25  1  0  0  0  0
 18 46  1  0  0  0  0
 18 47  1  0  0  0  0
 19 22  1  0  0  0  0
 19 48  1  0  0  0  0
 19 49  1  0  0  0  0
 20 22  1  0  0  0  0
 20 29  1  0  0  0  0
 20 34  1  0  0  0  0
 21 50  1  0  0  0  0
 21 51  1  0  0  0  0
 21 52  1  0  0  0  0
 22 53  1  0  0  0  0
 22 54  1  0  0  0  0
 23 25  1  0  0  0  0
 23 55  1  0  0  0  0
 24 56  1  0  0  0  0
 25 57  1  0  0  0  0
 26 58  1  0  0  0  0
 26 59  1  0  0  0  0
 26 60  1  0  0  0  0
 27 61  1  0  0  0  0
 27 62  1  0  0  0  0
 27 63  1  0  0  0  0
 28 30  1  0  0  0  0
 28 64  1  0  0  0  0
 29 33  1  0  0  0  0
 29 65  1  0  0  0  0
 29 66  1  0  0  0  0
 30 33  1  0  0  0  0
 30 35  1  0  0  0  0
 30 36  1  0  0  0  0
 31 67  1  0  0  0  0
 31 68  1  0  0  0  0
 32 69  1  0  0  0  0
 32 70  1  0  0  0  0
 32 71  1  0  0  0  0
 33 72  1  0  0  0  0
 33 73  1  0  0  0  0
 35 74  1  0  0  0  0
 35 75  1  0  0  0  0
 35 76  1  0  0  0  0
 36 77  1  0  0  0  0
 36 78  1  0  0  0  0
 36 79  1  0  0  0  0
M  END
> <PUBCHEM_COMPOUND_CID>
124214

> <PUBCHEM_CONFORMER_RMSD>
0.8

> <PUBCHEM_CONFORMER_DIVERSEORDER>
1
2
3

> <PUBCHEM_MMFF94_PARTIAL_CHARGES>
23
1 -0.68
10 0.14
13 -0.28
16 0.14
17 0.14
2 -0.68
20 0.06
23 0.28
24 -0.29
25 0.28
28 0.28
3 -0.68
31 0.28
34 0.66
4 -0.68
5 -0.65
56 0.15
6 -0.57
80 0.4
81 0.4
82 0.4
83 0.4
84 0.5

> <PUBCHEM_EFFECTIVE_ROTOR_COUNT>
4.6

> <PUBCHEM_PHARMACOPHORE_FEATURES>
17
1 1 acceptor
1 1 donor
1 2 acceptor
1 2 donor
1 3 acceptor
1 3 donor
1 4 acceptor
1 4 donor
1 5 acceptor
1 6 acceptor
3 30 35 36 hydrophobe
3 5 6 34 anion
6 10 13 16 19 20 22 rings
6 16 20 28 29 30 33 rings
6 7 8 10 13 17 24 rings
6 7 8 9 11 12 14 rings
6 9 11 15 18 23 25 rings

> <PUBCHEM_HEAVY_ATOM_COUNT>
36

> <PUBCHEM_ATOM_DEF_STEREO_COUNT>
11

> <PUBCHEM_ATOM_UDEF_STEREO_COUNT>
0

> <PUBCHEM_BOND_DEF_STEREO_COUNT>
0

> <PUBCHEM_BOND_UDEF_STEREO_COUNT>
0

> <PUBCHEM_ISOTOPIC_ATOM_COUNT>
0

> <PUBCHEM_COMPONENT_COUNT>
1

> <PUBCHEM_CACTVS_TAUTO_COUNT>
1

> <PUBCHEM_CONFORMER_ID>
0001E53600000001

> <PUBCHEM_MMFF94_ENERGY>
175.4595

> <PUBCHEM_FEATURE_SELFOVERLAP>
86.41

> <PUBCHEM_SHAPE_FINGERPRINT>
10595046 47 18409446990218092602
11007060 377 17894354401271516697
11578080 2 15696338182617556313
117089 54 18048042058545893051
12107183 9 17832423098929790321
12107698 1 18342738567504679521
12166972 35 18408606993241429017
12236239 1 18408040710371780197
12516196 113 18260829314906075676
12596602 18 18413388730929916032
12633046 712 18128806469839495628
13073987 5 18411702071534439568
13224815 77 18040709260173147176
13583140 156 17489296465145477771
1361 2 18333733528887890634
13782708 43 17561082514224201671
13811026 1 17967246516235038771
14068700 675 18338231678554443237
14118638 360 18408888438390251554
14347332 77 18410855482178069823
14856354 85 18130788997011043431
15001296 14 18266177425547865406
15082195 135 17750249152504098300
15183329 4 18412266125009586846
15361156 5 17969802807992180774
15788980 27 16988838367353618304
15799311 1 18341063916632144998
17349148 13 18113338630802292195
17844677 252 18272652354923658000
17857418 61 18259983786021532246
18608769 82 18270960266452499691
19958102 18 18335416842350511999
20511986 3 18335128774540576664
20775438 99 16682578522639821975
21033648 29 16271636802643238529
21130935 74 18337665318566457210
21236236 1 18333732407911183291
21267235 1 18113902697948649819
23522609 53 17897472552066623132
23559900 14 18262231244219756729
23569943 247 17533487938317441866
24771293 8 18114183060318308876
24771750 20 16664891636248593444
2838139 119 10665218272645734019
32027 91 17907294352220079910
34797466 226 17775012323214738972
350125 39 18408603669437323553
3633792 109 17967522481343182733
4015057 19 16588313838472018469
4073 2 18040159525844853562
460360 51 15553054203572235687
497634 4 18408322164401324805
508706 21 17022905631354794221
5104073 3 18335416838239739040
5265222 85 17846214526891272486
77296 10 18413110545628790781
9849439 229 16910613415624008937

> <PUBCHEM_SHAPE_MULTIPOLES>
705.65
16.32
2.69
1.67
4.92
0.01
0.03
-4.2
-1.03
-1.89
0.04
0.27
0.04
-0.87

> <PUBCHEM_SHAPE_SELFOVERLAP>
1505.274

> <PUBCHEM_SHAPE_VOLUME>
384.7

> <PUBCHEM_COORDINATE_TYPE>
2
5
10

$$$$
