470665
  -OEChem-08292012583D

 79 83  0     1  0  0  0  0  0999 V2000
    6.9121    0.9631   -0.7074 O   0  0  0  0  0  0  0  0  0  0  0  0
   -4.0590   -3.0885   -0.7235 O   0  0  0  0  0  0  0  0  0  0  0  0
   -2.8542   -1.7325   -2.1038 O   0  0  0  0  0  0  0  0  0  0  0  0
    0.7297   -0.7729    0.2059 C   0  0  2  0  0  0  0  0  0  0  0  0
    1.4472    0.5084   -0.3623 C   0  0  1  0  0  0  0  0  0  0  0  0
   -0.7611   -0.3360    0.7255 C   0  0  1  0  0  0  0  0  0  0  0  0
    3.0221    0.4485   -0.6003 C   0  0  2  0  0  0  0  0  0  0  0  0
    3.7029   -0.1993    0.6559 C   0  0  1  0  0  0  0  0  0  0  0  0
    1.5799   -1.3779    1.3551 C   0  0  0  0  0  0  0  0  0  0  0  0
   -1.5068    0.4217   -0.3948 C   0  0  0  0  0  0  0  0  0  0  0  0
   -3.0397    0.4622   -0.4221 C   0  0  1  0  0  0  0  0  0  0  0  0
    3.0581   -1.5506    1.0139 C   0  0  0  0  0  0  0  0  0  0  0  0
   -1.5586   -1.5879    1.2018 C   0  0  0  0  0  0  0  0  0  0  0  0
   -3.6911   -0.8728    0.0127 C   0  0  1  0  0  0  0  0  0  0  0  0
    0.6514    1.0904   -1.5501 C   0  0  0  0  0  0  0  0  0  0  0  0
    5.2724   -0.2528    0.6084 C   0  0  0  0  0  0  0  0  0  0  0  0
    3.5419    1.9222   -0.7427 C   0  0  0  0  0  0  0  0  0  0  0  0
   -3.0730   -1.3824    1.3260 C   0  0  0  0  0  0  0  0  0  0  0  0
    0.5953   -1.8683   -0.8972 C   0  0  0  0  0  0  0  0  0  0  0  0
   -0.8375    1.0495   -1.3826 C   0  0  0  0  0  0  0  0  0  0  0  0
   -0.6846    0.6321    1.9456 C   0  0  0  0  0  0  0  0  0  0  0  0
    3.4228   -0.2802   -1.9071 C   0  0  0  0  0  0  0  0  0  0  0  0
   -3.5774    1.6879    0.3512 C   0  0  0  0  0  0  0  0  0  0  0  0
   -5.2268   -0.7528    0.1334 C   0  0  0  0  0  0  0  0  0  0  0  0
   -5.1171    1.7905    0.3876 C   0  0  0  0  0  0  0  0  0  0  0  0
    4.9367    2.1893   -0.1855 C   0  0  0  0  0  0  0  0  0  0  0  0
    5.8022    0.9552   -0.1738 C   0  0  0  0  0  0  0  0  0  0  0  0
   -5.6998    0.4676    0.9183 C   0  0  0  0  0  0  0  0  0  0  0  0
    5.8374   -0.1280    2.0402 C   0  0  0  0  0  0  0  0  0  0  0  0
    5.8464   -1.5466   -0.0009 C   0  0  0  0  0  0  0  0  0  0  0  0
   -3.4718   -1.9157   -1.0654 C   0  0  0  0  0  0  0  0  0  0  0  0
   -5.6802    2.1265   -1.0063 C   0  0  0  0  0  0  0  0  0  0  0  0
   -5.5196    2.9302    1.3444 C   0  0  0  0  0  0  0  0  0  0  0  0
    1.3538    1.2518    0.4405 H   0  0  0  0  0  0  0  0  0  0  0  0
    3.4525    0.4752    1.4913 H   0  0  0  0  0  0  0  0  0  0  0  0
    1.1718   -2.3490    1.6607 H   0  0  0  0  0  0  0  0  0  0  0  0
    1.5467   -0.7440    2.2442 H   0  0  0  0  0  0  0  0  0  0  0  0
   -3.3345    0.6300   -1.4689 H   0  0  0  0  0  0  0  0  0  0  0  0
    3.5537   -1.9766    1.8943 H   0  0  0  0  0  0  0  0  0  0  0  0
    3.1777   -2.2823    0.2093 H   0  0  0  0  0  0  0  0  0  0  0  0
   -1.1748   -1.9246    2.1734 H   0  0  0  0  0  0  0  0  0  0  0  0
   -1.4139   -2.4338    0.5265 H   0  0  0  0  0  0  0  0  0  0  0  0
    0.8688    0.5495   -2.4752 H   0  0  0  0  0  0  0  0  0  0  0  0
    0.9476    2.1326   -1.7151 H   0  0  0  0  0  0  0  0  0  0  0  0
    2.8664    2.6243   -0.2370 H   0  0  0  0  0  0  0  0  0  0  0  0
    3.5163    2.2214   -1.7993 H   0  0  0  0  0  0  0  0  0  0  0  0
   -3.5239   -2.3363    1.6292 H   0  0  0  0  0  0  0  0  0  0  0  0
   -3.2845   -0.6869    2.1454 H   0  0  0  0  0  0  0  0  0  0  0  0
   -0.1491   -1.6188   -1.6571 H   0  0  0  0  0  0  0  0  0  0  0  0
    1.5272   -2.0510   -1.4254 H   0  0  0  0  0  0  0  0  0  0  0  0
    0.3173   -2.8390   -0.4740 H   0  0  0  0  0  0  0  0  0  0  0  0
   -1.3987    1.5663   -2.1586 H   0  0  0  0  0  0  0  0  0  0  0  0
   -1.6669    0.8234    2.3825 H   0  0  0  0  0  0  0  0  0  0  0  0
   -0.0994    0.2228    2.7716 H   0  0  0  0  0  0  0  0  0  0  0  0
   -0.2686    1.6101    1.6857 H   0  0  0  0  0  0  0  0  0  0  0  0
    2.8276    0.0394   -2.7653 H   0  0  0  0  0  0  0  0  0  0  0  0
    4.4586   -0.0639   -2.1891 H   0  0  0  0  0  0  0  0  0  0  0  0
    3.3491   -1.3648   -1.8334 H   0  0  0  0  0  0  0  0  0  0  0  0
   -3.2210    1.6654    1.3840 H   0  0  0  0  0  0  0  0  0  0  0  0
   -3.1602    2.6055   -0.0860 H   0  0  0  0  0  0  0  0  0  0  0  0
   -5.6462   -1.6460    0.6161 H   0  0  0  0  0  0  0  0  0  0  0  0
   -5.6813   -0.7253   -0.8661 H   0  0  0  0  0  0  0  0  0  0  0  0
    4.8723    2.5588    0.8446 H   0  0  0  0  0  0  0  0  0  0  0  0
    5.4284    2.9733   -0.7720 H   0  0  0  0  0  0  0  0  0  0  0  0
   -6.7966    0.5031    0.8942 H   0  0  0  0  0  0  0  0  0  0  0  0
   -5.4247    0.3382    1.9730 H   0  0  0  0  0  0  0  0  0  0  0  0
    5.5274   -0.9678    2.6705 H   0  0  0  0  0  0  0  0  0  0  0  0
    6.9337   -0.1041    2.0323 H   0  0  0  0  0  0  0  0  0  0  0  0
    5.5048    0.7971    2.5249 H   0  0  0  0  0  0  0  0  0  0  0  0
    5.5262   -1.7016   -1.0333 H   0  0  0  0  0  0  0  0  0  0  0  0
    6.9430   -1.5226   -0.0172 H   0  0  0  0  0  0  0  0  0  0  0  0
    5.5629   -2.4312    0.5786 H   0  0  0  0  0  0  0  0  0  0  0  0
   -5.2775    3.0782   -1.3717 H   0  0  0  0  0  0  0  0  0  0  0  0
   -5.4417    1.3648   -1.7536 H   0  0  0  0  0  0  0  0  0  0  0  0
   -6.7718    2.2203   -0.9745 H   0  0  0  0  0  0  0  0  0  0  0  0
   -6.6093    3.0315    1.4025 H   0  0  0  0  0  0  0  0  0  0  0  0
   -5.1493    2.7482    2.3596 H   0  0  0  0  0  0  0  0  0  0  0  0
   -5.1114    3.8904    1.0095 H   0  0  0  0  0  0  0  0  0  0  0  0
   -3.9281   -3.7772   -1.4096 H   0  0  0  0  0  0  0  0  0  0  0  0
  1 27  2  0  0  0  0
  2 31  1  0  0  0  0
  2 79  1  0  0  0  0
  3 31  2  0  0  0  0
  4  5  1  0  0  0  0
  4  6  1  0  0  0  0
  4  9  1  0  0  0  0
  4 19  1  0  0  0  0
  5  7  1  0  0  0  0
  5 15  1  0  0  0  0
  5 34  1  0  0  0  0
  6 10  1  0  0  0  0
  6 13  1  0  0  0  0
  6 21  1  0  0  0  0
  7  8  1  0  0  0  0
  7 17  1  0  0  0  0
  7 22  1  0  0  0  0
  8 12  1  0  0  0  0
  8 16  1  0  0  0  0
  8 35  1  0  0  0  0
  9 12  1  0  0  0  0
  9 36  1  0  0  0  0
  9 37  1  0  0  0  0
 10 11  1  0  0  0  0
 10 20  2  0  0  0  0
 11 14  1  0  0  0  0
 11 23  1  0  0  0  0
 11 38  1  0  0  0  0
 12 39  1  0  0  0  0
 12 40  1  0  0  0  0
 13 18  1  0  0  0  0
 13 41  1  0  0  0  0
 13 42  1  0  0  0  0
 14 18  1  0  0  0  0
 14 24  1  0  0  0  0
 14 31  1  0  0  0  0
 15 20  1  0  0  0  0
 15 43  1  0  0  0  0
 15 44  1  0  0  0  0
 16 27  1  0  0  0  0
 16 29  1  0  0  0  0
 16 30  1  0  0  0  0
 17 26  1  0  0  0  0
 17 45  1  0  0  0  0
 17 46  1  0  0  0  0
 18 47  1  0  0  0  0
 18 48  1  0  0  0  0
 19 49  1  0  0  0  0
 19 50  1  0  0  0  0
 19 51  1  0  0  0  0
 20 52  1  0  0  0  0
 21 53  1  0  0  0  0
 21 54  1  0  0  0  0
 21 55  1  0  0  0  0
 22 56  1  0  0  0  0
 22 57  1  0  0  0  0
 22 58  1  0  0  0  0
 23 25  1  0  0  0  0
 23 59  1  0  0  0  0
 23 60  1  0  0  0  0
 24 28  1  0  0  0  0
 24 61  1  0  0  0  0
 24 62  1  0  0  0  0
 25 28  1  0  0  0  0
 25 32  1  0  0  0  0
 25 33  1  0  0  0  0
 26 27  1  0  0  0  0
 26 63  1  0  0  0  0
 26 64  1  0  0  0  0
 28 65  1  0  0  0  0
 28 66  1  0  0  0  0
 29 67  1  0  0  0  0
 29 68  1  0  0  0  0
 29 69  1  0  0  0  0
 30 70  1  0  0  0  0
 30 71  1  0  0  0  0
 30 72  1  0  0  0  0
 32 73  1  0  0  0  0
 32 74  1  0  0  0  0
 32 75  1  0  0  0  0
 33 76  1  0  0  0  0
 33 77  1  0  0  0  0
 33 78  1  0  0  0  0
M  END
> <PUBCHEM_COMPOUND_CID>
470665

> <PUBCHEM_CONFORMER_RMSD>
0.8

> <PUBCHEM_CONFORMER_DIVERSEORDER>
6
11
9
13
7
2
4
14
5
15
10
8
3
1
12

> <PUBCHEM_MMFF94_PARTIAL_CHARGES>
15
1 -0.57
10 -0.28
11 0.14
14 0.06
15 0.14
16 0.06
2 -0.65
20 -0.29
26 0.06
27 0.45
3 -0.57
31 0.66
52 0.15
6 0.14
79 0.5

> <PUBCHEM_EFFECTIVE_ROTOR_COUNT>
3.4

> <PUBCHEM_PHARMACOPHORE_FEATURES>
11
1 1 acceptor
1 2 acceptor
1 3 acceptor
3 16 29 30 hydrophobe
3 2 3 31 anion
3 25 32 33 hydrophobe
6 11 14 23 24 25 28 rings
6 4 5 6 10 15 20 rings
6 4 5 7 8 9 12 rings
6 6 10 11 13 14 18 rings
6 7 8 16 17 26 27 rings

> <PUBCHEM_HEAVY_ATOM_COUNT>
33

> <PUBCHEM_ATOM_DEF_STEREO_COUNT>
4

> <PUBCHEM_ATOM_UDEF_STEREO_COUNT>
3

> <PUBCHEM_BOND_DEF_STEREO_COUNT>
0

> <PUBCHEM_BOND_UDEF_STEREO_COUNT>
0

> <PUBCHEM_ISOTOPIC_ATOM_COUNT>
0

> <PUBCHEM_COMPONENT_COUNT>
1

> <PUBCHEM_CACTVS_TAUTO_COUNT>
2

> <PUBCHEM_CONFORMER_ID>
00072E8900000006

> <PUBCHEM_MMFF94_ENERGY>
142.8887

> <PUBCHEM_FEATURE_SELFOVERLAP>
55.96

> <PUBCHEM_SHAPE_FINGERPRINT>
10 15 17821736013707327241
10595046 47 18338515360506086006
10906281 52 17603884294633531242
12107183 9 17977099063663404770
12236239 1 18410011035356447938
12422481 6 17968091976035667036
12616971 3 18040996241419198814
12633257 1 17313108570042339364
12788726 201 17916588630956280161
13224815 77 17967530190229340342
13533116 47 16443338720876191922
13690498 29 17845365730064429839
14068700 675 17914597592335711455
14790565 3 18260550017319450537
14840074 17 17530685415873261406
14849402 71 18188213221176831996
14856354 85 18202283645421964319
15131766 46 15215869391471536223
15183329 4 18259982682362695040
15361156 5 18187939365196979638
1577012 14 18334292081163318792
15788980 27 18412826901910081378
15840311 113 18191595142892026449
17349148 13 17312817186940080222
17980427 23 18259990396039537301
20511986 3 18335972117075601177
21033648 144 17241607397881823990
21033648 29 18201145638171158584
21130935 74 18186519886869200994
21236236 1 18335701667569894613
21424621 283 17559407855648202841
23402539 116 18113613486817635877
23522609 53 18042147430447792204
23559900 14 17988373563501125166
23569914 152 14112207879868247317
23569914 2 17198494331297659440
23569943 247 17241876585031513314
24771293 8 18188487004141246916
32027 91 17629499505109455246
34797466 226 17917159384833304228
350125 39 17967813821591110460
3633792 109 17968363599375395655
3680242 22 17458626683795600680
404807 14 17260759447176819378
4073 2 17822300132171096930
4169191 19 17387135467443643644
5104073 3 17967813881562378144
6086070 43 18272361009922391913
7226269 152 18410294671039831921
9849439 229 17411636697047805793

> <PUBCHEM_SHAPE_MULTIPOLES>
661.52
15.56
2.55
1.68
6.41
0.08
0.01
5.43
2.06
-2.41
-0.19
0
-0.17
-1.63

> <PUBCHEM_SHAPE_SELFOVERLAP>
1413.955

> <PUBCHEM_SHAPE_VOLUME>
363.1

> <PUBCHEM_COORDINATE_TYPE>
2
5
10

$$$$
