12313019
  -OEChem-08292013413D

 39 40  0     1  0  0  0  0  0999 V2000
    0.2049   -0.3196   -0.7390 C   0  0  2  0  0  0  0  0  0  0  0  0
    1.4738    0.3011   -0.0998 C   0  0  1  0  0  0  0  0  0  0  0  0
   -0.8303    0.8135   -1.0130 C   0  0  1  0  0  0  0  0  0  0  0  0
    1.1812    0.9529    1.2656 C   0  0  0  0  0  0  0  0  0  0  0  0
    2.6510   -0.6715    0.0030 C   0  0  0  0  0  0  0  0  0  0  0  0
   -2.2268    0.2279   -1.2696 C   0  0  0  0  0  0  0  0  0  0  0  0
   -0.8309    1.8925    0.0628 C   0  0  0  0  0  0  0  0  0  0  0  0
   -0.2316    1.5315    1.3944 C   0  0  0  0  0  0  0  0  0  0  0  0
   -0.3658   -1.4815    0.0486 C   0  0  0  0  0  0  0  0  0  0  0  0
   -2.7155   -0.6643   -0.1290 C   0  0  0  0  0  0  0  0  0  0  0  0
   -1.6683   -1.6361    0.3439 C   0  0  0  0  0  0  0  0  0  0  0  0
    2.9109   -1.3380   -1.3447 C   0  0  0  0  0  0  0  0  0  0  0  0
    3.8997    0.0530    0.4970 C   0  0  0  0  0  0  0  0  0  0  0  0
   -1.2898    3.1297   -0.1846 C   0  0  0  0  0  0  0  0  0  0  0  0
   -2.1625   -2.7912    1.1643 C   0  0  0  0  0  0  0  0  0  0  0  0
    0.4560   -0.7238   -1.7277 H   0  0  0  0  0  0  0  0  0  0  0  0
    1.7879    1.1133   -0.7748 H   0  0  0  0  0  0  0  0  0  0  0  0
   -0.5114    1.3069   -1.9441 H   0  0  0  0  0  0  0  0  0  0  0  0
    1.9010    1.7650    1.4319 H   0  0  0  0  0  0  0  0  0  0  0  0
    1.3324    0.2374    2.0838 H   0  0  0  0  0  0  0  0  0  0  0  0
    2.4318   -1.4618    0.7313 H   0  0  0  0  0  0  0  0  0  0  0  0
   -2.1905   -0.3674   -2.1924 H   0  0  0  0  0  0  0  0  0  0  0  0
   -2.9602    1.0232   -1.4505 H   0  0  0  0  0  0  0  0  0  0  0  0
   -0.2036    2.3925    2.0737 H   0  0  0  0  0  0  0  0  0  0  0  0
   -0.8822    0.7969    1.8836 H   0  0  0  0  0  0  0  0  0  0  0  0
    0.3337   -2.2420    0.3847 H   0  0  0  0  0  0  0  0  0  0  0  0
   -3.5979   -1.2130   -0.4801 H   0  0  0  0  0  0  0  0  0  0  0  0
   -3.0401   -0.0494    0.7190 H   0  0  0  0  0  0  0  0  0  0  0  0
    2.9879   -0.6019   -2.1522 H   0  0  0  0  0  0  0  0  0  0  0  0
    3.8532   -1.8975   -1.3204 H   0  0  0  0  0  0  0  0  0  0  0  0
    2.1345   -2.0639   -1.6030 H   0  0  0  0  0  0  0  0  0  0  0  0
    4.1466    0.9082   -0.1415 H   0  0  0  0  0  0  0  0  0  0  0  0
    4.7631   -0.6219    0.4943 H   0  0  0  0  0  0  0  0  0  0  0  0
    3.7864    0.4121    1.5244 H   0  0  0  0  0  0  0  0  0  0  0  0
   -1.6985    3.3938   -1.1543 H   0  0  0  0  0  0  0  0  0  0  0  0
   -1.2679    3.9039    0.5749 H   0  0  0  0  0  0  0  0  0  0  0  0
   -1.3478   -3.4458    1.4911 H   0  0  0  0  0  0  0  0  0  0  0  0
   -2.8648   -3.3974    0.5832 H   0  0  0  0  0  0  0  0  0  0  0  0
   -2.6757   -2.4263    2.0600 H   0  0  0  0  0  0  0  0  0  0  0  0
  1  2  1  0  0  0  0
  1  3  1  0  0  0  0
  1  9  1  0  0  0  0
  1 16  1  0  0  0  0
  2  4  1  0  0  0  0
  2  5  1  0  0  0  0
  2 17  1  0  0  0  0
  3  6  1  0  0  0  0
  3  7  1  0  0  0  0
  3 18  1  0  0  0  0
  4  8  1  0  0  0  0
  4 19  1  0  0  0  0
  4 20  1  0  0  0  0
  5 12  1  0  0  0  0
  5 13  1  0  0  0  0
  5 21  1  0  0  0  0
  6 10  1  0  0  0  0
  6 22  1  0  0  0  0
  6 23  1  0  0  0  0
  7  8  1  0  0  0  0
  7 14  2  0  0  0  0
  8 24  1  0  0  0  0
  8 25  1  0  0  0  0
  9 11  2  0  0  0  0
  9 26  1  0  0  0  0
 10 11  1  0  0  0  0
 10 27  1  0  0  0  0
 10 28  1  0  0  0  0
 11 15  1  0  0  0  0
 12 29  1  0  0  0  0
 12 30  1  0  0  0  0
 12 31  1  0  0  0  0
 13 32  1  0  0  0  0
 13 33  1  0  0  0  0
 13 34  1  0  0  0  0
 14 35  1  0  0  0  0
 14 36  1  0  0  0  0
 15 37  1  0  0  0  0
 15 38  1  0  0  0  0
 15 39  1  0  0  0  0
M  END
> <PUBCHEM_COMPOUND_CID>
12313019

> <PUBCHEM_CONFORMER_RMSD>
0.6

> <PUBCHEM_CONFORMER_DIVERSEORDER>
1
2

> <PUBCHEM_MMFF94_PARTIAL_CHARGES>
12
1 0.14
10 0.14
11 -0.28
14 -0.3
15 0.14
26 0.15
3 0.14
35 0.15
36 0.15
7 -0.28
8 0.14
9 -0.29

> <PUBCHEM_EFFECTIVE_ROTOR_COUNT>
2

> <PUBCHEM_PHARMACOPHORE_FEATURES>
3
3 5 12 13 hydrophobe
6 1 2 3 4 7 8 rings
6 1 3 6 9 10 11 rings

> <PUBCHEM_HEAVY_ATOM_COUNT>
15

> <PUBCHEM_ATOM_DEF_STEREO_COUNT>
3

> <PUBCHEM_ATOM_UDEF_STEREO_COUNT>
0

> <PUBCHEM_BOND_DEF_STEREO_COUNT>
0

> <PUBCHEM_BOND_UDEF_STEREO_COUNT>
0

> <PUBCHEM_ISOTOPIC_ATOM_COUNT>
0

> <PUBCHEM_COMPONENT_COUNT>
1

> <PUBCHEM_CACTVS_TAUTO_COUNT>
1

> <PUBCHEM_CONFORMER_ID>
00BBE1BB00000001

> <PUBCHEM_MMFF94_ENERGY>
28.9892

> <PUBCHEM_FEATURE_SELFOVERLAP>
15.362

> <PUBCHEM_SHAPE_FINGERPRINT>
11578080 2 15724687097064067460
12423570 1 13937975526292164313
12532896 13 18123187892259559460
12716301 132 18194097664998963889
13024252 1 13551482427294525677
13027679 85 18338233889956282853
13294875 104 17116886160401307840
14648413 74 17831573541904148641
14817 1 11579348043557833777
15490181 7 17618786860050400293
16945 1 18335143055122070126
17844478 74 18342739641325221960
18534176 82 18336255791228359758
19049666 15 18198902522459708686
19765921 60 17765703633760714577
20201158 50 18272080613240636446
20379382 53 17618798284942657651
20510252 161 18339358569854991185
21061003 4 17703229632621190664
21524375 3 17549544011405574965
21665056 4 17975140842097335510
22344851 341 17762617283452230651
22721475 48 18341893030198707546
22802520 49 18342170098460033232
23557571 272 18335144236739197654
23559900 14 18337662050074660762
2748010 2 18196358445409546125
568465 68 17986672769331594570
576247 118 18267882737732613130
598444 67 18269562645581580675
7364860 26 17544769279340906299
81228 2 18411989026578229129

> <PUBCHEM_SHAPE_MULTIPOLES>
308.69
4.44
2.81
1.3
3.89
0.67
0.04
-1.85
-0.27
-2.17
0.64
0.01
-0.05
1.07

> <PUBCHEM_SHAPE_SELFOVERLAP>
628.354

> <PUBCHEM_SHAPE_VOLUME>
178

> <PUBCHEM_COORDINATE_TYPE>
2
5
10

$$$$
