21206
  -OEChem-09302001063D

 50 49  0     1  0  0  0  0  0999 V2000
   -7.9168   -0.7061    0.2918 O   0  0  0  0  0  0  0  0  0  0  0  0
   -6.9441    0.9911   -0.9316 O   0  0  0  0  0  0  0  0  0  0  0  0
    5.7639    0.8120   -0.0968 C   0  0  0  0  0  0  0  0  0  0  0  0
    7.1008    0.2546    0.4313 C   0  0  1  0  0  0  0  0  0  0  0  0
    4.5349    0.0940    0.4686 C   0  0  0  0  0  0  0  0  0  0  0  0
    3.2397    0.7003   -0.0768 C   0  0  0  0  0  0  0  0  0  0  0  0
    2.0117   -0.0395    0.4570 C   0  0  0  0  0  0  0  0  0  0  0  0
    0.7175    0.5454   -0.1138 C   0  0  0  0  0  0  0  0  0  0  0  0
   -0.5101   -0.1755    0.4473 C   0  0  0  0  0  0  0  0  0  0  0  0
   -1.8367    0.3901   -0.0677 C   0  0  0  0  0  0  0  0  0  0  0  0
    7.2841   -1.2615    0.2206 C   0  0  0  0  0  0  0  0  0  0  0  0
   -3.0618   -0.3771    0.4347 C   0  0  0  0  0  0  0  0  0  0  0  0
    8.2650    1.0462   -0.1742 C   0  0  0  0  0  0  0  0  0  0  0  0
   -4.3567    0.2380   -0.0998 C   0  0  0  0  0  0  0  0  0  0  0  0
    7.3671   -1.7109   -1.2316 C   0  0  0  0  0  0  0  0  0  0  0  0
   -5.5808   -0.5473    0.3683 C   0  0  0  0  0  0  0  0  0  0  0  0
   -6.8660    0.0263   -0.1836 C   0  0  0  0  0  0  0  0  0  0  0  0
   -9.2118   -0.2800   -0.1437 C   0  0  0  0  0  0  0  0  0  0  0  0
    5.7444    0.7547   -1.1922 H   0  0  0  0  0  0  0  0  0  0  0  0
    5.7002    1.8780    0.1571 H   0  0  0  0  0  0  0  0  0  0  0  0
    7.1218    0.4265    1.5162 H   0  0  0  0  0  0  0  0  0  0  0  0
    4.5423    0.1542    1.5634 H   0  0  0  0  0  0  0  0  0  0  0  0
    4.5562   -0.9666    0.1971 H   0  0  0  0  0  0  0  0  0  0  0  0
    3.1824    1.7593    0.2026 H   0  0  0  0  0  0  0  0  0  0  0  0
    3.2464    0.6545   -1.1727 H   0  0  0  0  0  0  0  0  0  0  0  0
    2.0785   -1.1026    0.1956 H   0  0  0  0  0  0  0  0  0  0  0  0
    1.9942    0.0239    1.5518 H   0  0  0  0  0  0  0  0  0  0  0  0
    0.7243    0.4630   -1.2071 H   0  0  0  0  0  0  0  0  0  0  0  0
    0.6565    1.6129    0.1305 H   0  0  0  0  0  0  0  0  0  0  0  0
   -0.4994   -0.1155    1.5427 H   0  0  0  0  0  0  0  0  0  0  0  0
   -0.4501   -1.2399    0.1883 H   0  0  0  0  0  0  0  0  0  0  0  0
   -1.8291    0.3753   -1.1647 H   0  0  0  0  0  0  0  0  0  0  0  0
   -1.9170    1.4419    0.2337 H   0  0  0  0  0  0  0  0  0  0  0  0
    6.4875   -1.8166    0.7271 H   0  0  0  0  0  0  0  0  0  0  0  0
    8.2127   -1.5685    0.7197 H   0  0  0  0  0  0  0  0  0  0  0  0
   -2.9911   -1.4245    0.1176 H   0  0  0  0  0  0  0  0  0  0  0  0
   -3.0751   -0.3704    1.5312 H   0  0  0  0  0  0  0  0  0  0  0  0
    8.2047    2.0997    0.1202 H   0  0  0  0  0  0  0  0  0  0  0  0
    9.2267    0.6587    0.1779 H   0  0  0  0  0  0  0  0  0  0  0  0
    8.2586    1.0095   -1.2682 H   0  0  0  0  0  0  0  0  0  0  0  0
   -4.4371    1.2807    0.2318 H   0  0  0  0  0  0  0  0  0  0  0  0
   -4.3295    0.2574   -1.1966 H   0  0  0  0  0  0  0  0  0  0  0  0
    7.4785   -2.7993   -1.2775 H   0  0  0  0  0  0  0  0  0  0  0  0
    6.4611   -1.4470   -1.7847 H   0  0  0  0  0  0  0  0  0  0  0  0
    8.2285   -1.2719   -1.7428 H   0  0  0  0  0  0  0  0  0  0  0  0
   -5.6365   -0.5251    1.4624 H   0  0  0  0  0  0  0  0  0  0  0  0
   -5.5028   -1.5882    0.0350 H   0  0  0  0  0  0  0  0  0  0  0  0
   -9.4063    0.7432    0.1914 H   0  0  0  0  0  0  0  0  0  0  0  0
   -9.2875   -0.3515   -1.2330 H   0  0  0  0  0  0  0  0  0  0  0  0
   -9.9564   -0.9434    0.3041 H   0  0  0  0  0  0  0  0  0  0  0  0
  1 17  1  0  0  0  0
  1 18  1  0  0  0  0
  2 17  2  0  0  0  0
  3  4  1  0  0  0  0
  3  5  1  0  0  0  0
  3 19  1  0  0  0  0
  3 20  1  0  0  0  0
  4 11  1  0  0  0  0
  4 13  1  0  0  0  0
  4 21  1  0  0  0  0
  5  6  1  0  0  0  0
  5 22  1  0  0  0  0
  5 23  1  0  0  0  0
  6  7  1  0  0  0  0
  6 24  1  0  0  0  0
  6 25  1  0  0  0  0
  7  8  1  0  0  0  0
  7 26  1  0  0  0  0
  7 27  1  0  0  0  0
  8  9  1  0  0  0  0
  8 28  1  0  0  0  0
  8 29  1  0  0  0  0
  9 10  1  0  0  0  0
  9 30  1  0  0  0  0
  9 31  1  0  0  0  0
 10 12  1  0  0  0  0
 10 32  1  0  0  0  0
 10 33  1  0  0  0  0
 11 15  1  0  0  0  0
 11 34  1  0  0  0  0
 11 35  1  0  0  0  0
 12 14  1  0  0  0  0
 12 36  1  0  0  0  0
 12 37  1  0  0  0  0
 13 38  1  0  0  0  0
 13 39  1  0  0  0  0
 13 40  1  0  0  0  0
 14 16  1  0  0  0  0
 14 41  1  0  0  0  0
 14 42  1  0  0  0  0
 15 43  1  0  0  0  0
 15 44  1  0  0  0  0
 15 45  1  0  0  0  0
 16 17  1  0  0  0  0
 16 46  1  0  0  0  0
 16 47  1  0  0  0  0
 18 48  1  0  0  0  0
 18 49  1  0  0  0  0
 18 50  1  0  0  0  0
M  END
> <PUBCHEM_COMPOUND_CID>
21206

> <PUBCHEM_CONFORMER_RMSD>
1.4

> <PUBCHEM_CONFORMER_DIVERSEORDER>
1
65
58
4
71
33
50
68
70
21
44
73
24
27
43
15
67
14
11
2
72
60
61
26
13
17
38
20
56
57
36
54
69
19
23
53
55
12
7
25
31
34
45
59
10
63
41
35
16
62
8
6
40
66
52
32
29
48
28
46
30
47
22
49
5
3
42
39
18
9
51
64
37

> <PUBCHEM_MMFF94_PARTIAL_CHARGES>
5
1 -0.43
16 0.06
17 0.66
18 0.28
2 -0.57

> <PUBCHEM_EFFECTIVE_ROTOR_COUNT>
13

> <PUBCHEM_PHARMACOPHORE_FEATURES>
3
1 13 hydrophobe
1 15 hydrophobe
1 2 acceptor

> <PUBCHEM_HEAVY_ATOM_COUNT>
18

> <PUBCHEM_ATOM_DEF_STEREO_COUNT>
0

> <PUBCHEM_ATOM_UDEF_STEREO_COUNT>
1

> <PUBCHEM_BOND_DEF_STEREO_COUNT>
0

> <PUBCHEM_BOND_UDEF_STEREO_COUNT>
0

> <PUBCHEM_ISOTOPIC_ATOM_COUNT>
0

> <PUBCHEM_COMPONENT_COUNT>
1

> <PUBCHEM_CACTVS_TAUTO_COUNT>
1

> <PUBCHEM_CONFORMER_ID>
000052D600000001

> <PUBCHEM_MMFF94_ENERGY>
8.2689

> <PUBCHEM_FEATURE_SELFOVERLAP>
15.223

> <PUBCHEM_SHAPE_FINGERPRINT>
10066227 49 18201159845691514494
11315181 36 18411704305339453025
11638347 137 13901914384713030932
12091667 2 17967532385717134561
13885169 127 18408885109985964369
14123256 10 18407477765008634401
14251764 18 16774080661189569146
14251764 46 18410856568235005424
15510794 2 18259988184912387170
155225 1 10953751006738645166
18006028 8 18060419118508546745
20165401 70 17131554921759781886
20621476 8 17894909620220234943
21095086 128 18273212015528112471
21315763 28 18273496784359812297
21362267 313 14979411560048821991
22224240 67 11167940259998647964
232437 2 18113898264877638818
23521765 1 18342175579006997561
246663 6 18334296465802695099
28498 318 18413670197078938334
33532 11 18201719531564508798
33684 2 17531243967579666017
5283156 175 17917713491527963370
67123 10 18260266373363162840
8209 1 18113335323434881177

> <PUBCHEM_SHAPE_MULTIPOLES>
358.69
33.21
1.12
0.81
20.95
0.3
-0.08
4.32
-3.79
-2.22
-0.22
-0.34
0.1
1

> <PUBCHEM_SHAPE_SELFOVERLAP>
655.803

> <PUBCHEM_SHAPE_VOLUME>
228.8

> <PUBCHEM_COORDINATE_TYPE>
2
5
10

$$$$
