5964319
  -OEChem-09292023383D

 38 39  0     0  0  0  0  0  0999 V2000
    1.8614    1.7647    1.2809 O   0  0  0  0  0  0  0  0  0  0  0  0
    5.3645   -0.0233   -1.4072 O   0  0  0  0  0  0  0  0  0  0  0  0
    1.4401   -2.6123   -0.6425 O   0  0  0  0  0  0  0  0  0  0  0  0
    0.1988   -1.0762    2.0566 O   0  0  0  0  0  0  0  0  0  0  0  0
   -4.6079   -1.5981    1.0505 O   0  0  0  0  0  0  0  0  0  0  0  0
    1.6401   -0.4246    0.3239 C   0  0  0  0  0  0  0  0  0  0  0  0
    2.3539    0.7426    0.5257 C   0  0  0  0  0  0  0  0  0  0  0  0
    2.1416   -1.4608   -0.4423 C   0  0  0  0  0  0  0  0  0  0  0  0
    3.6131    0.8781   -0.0592 C   0  0  0  0  0  0  0  0  0  0  0  0
    4.1363   -0.1558   -0.8357 C   0  0  0  0  0  0  0  0  0  0  0  0
    0.3015   -0.5692    0.9451 C   0  0  0  0  0  0  0  0  0  0  0  0
    3.4008   -1.3252   -1.0272 C   0  0  0  0  0  0  0  0  0  0  0  0
   -3.3503    0.1489   -0.0184 C   0  0  0  0  0  0  0  0  0  0  0  0
   -0.8782   -0.1107    0.1599 C   0  0  0  0  0  0  0  0  0  0  0  0
   -2.1246   -0.2459    0.6626 C   0  0  0  0  0  0  0  0  0  0  0  0
   -4.5460   -0.5367    0.1967 C   0  0  0  0  0  0  0  0  0  0  0  0
   -3.3156    1.2313   -0.8977 C   0  0  0  0  0  0  0  0  0  0  0  0
   -5.7068   -0.1397   -0.4673 C   0  0  0  0  0  0  0  0  0  0  0  0
   -4.4764    1.6281   -1.5617 C   0  0  0  0  0  0  0  0  0  0  0  0
   -5.6718    0.9426   -1.3465 C   0  0  0  0  0  0  0  0  0  0  0  0
    2.1631    1.7438    2.6743 C   0  0  0  0  0  0  0  0  0  0  0  0
    6.0624    1.1984   -1.1705 C   0  0  0  0  0  0  0  0  0  0  0  0
    4.1366    1.8107    0.1245 H   0  0  0  0  0  0  0  0  0  0  0  0
    3.8161   -2.1261   -1.6340 H   0  0  0  0  0  0  0  0  0  0  0  0
   -0.6853    0.3054   -0.8230 H   0  0  0  0  0  0  0  0  0  0  0  0
   -2.2583   -0.6926    1.6451 H   0  0  0  0  0  0  0  0  0  0  0  0
   -2.4083    1.8021   -1.0775 H   0  0  0  0  0  0  0  0  0  0  0  0
   -6.6457   -0.6639   -0.3096 H   0  0  0  0  0  0  0  0  0  0  0  0
   -4.4508    2.4735   -2.2430 H   0  0  0  0  0  0  0  0  0  0  0  0
   -6.5758    1.2524   -1.8627 H   0  0  0  0  0  0  0  0  0  0  0  0
    1.9621   -3.2094   -1.2055 H   0  0  0  0  0  0  0  0  0  0  0  0
    1.6251    2.5667    3.1530 H   0  0  0  0  0  0  0  0  0  0  0  0
    3.2364    1.8912    2.8306 H   0  0  0  0  0  0  0  0  0  0  0  0
    1.8455    0.8043    3.1359 H   0  0  0  0  0  0  0  0  0  0  0  0
    6.2925    1.3312   -0.1078 H   0  0  0  0  0  0  0  0  0  0  0  0
    5.5260    2.0562   -1.5900 H   0  0  0  0  0  0  0  0  0  0  0  0
    7.0194    1.1313   -1.6983 H   0  0  0  0  0  0  0  0  0  0  0  0
   -5.5178   -1.9410    1.0674 H   0  0  0  0  0  0  0  0  0  0  0  0
  1  7  1  0  0  0  0
  1 21  1  0  0  0  0
  2 10  1  0  0  0  0
  2 22  1  0  0  0  0
  3  8  1  0  0  0  0
  3 31  1  0  0  0  0
  4 11  2  0  0  0  0
  5 16  1  0  0  0  0
  5 38  1  0  0  0  0
  6  7  1  0  0  0  0
  6  8  2  0  0  0  0
  6 11  1  0  0  0  0
  7  9  2  0  0  0  0
  8 12  1  0  0  0  0
  9 10  1  0  0  0  0
  9 23  1  0  0  0  0
 10 12  2  0  0  0  0
 11 14  1  0  0  0  0
 12 24  1  0  0  0  0
 13 15  1  0  0  0  0
 13 16  1  0  0  0  0
 13 17  2  0  0  0  0
 14 15  2  0  0  0  0
 14 25  1  0  0  0  0
 15 26  1  0  0  0  0
 16 18  2  0  0  0  0
 17 19  1  0  0  0  0
 17 27  1  0  0  0  0
 18 20  1  0  0  0  0
 18 28  1  0  0  0  0
 19 20  2  0  0  0  0
 19 29  1  0  0  0  0
 20 30  1  0  0  0  0
 21 32  1  0  0  0  0
 21 33  1  0  0  0  0
 21 34  1  0  0  0  0
 22 35  1  0  0  0  0
 22 36  1  0  0  0  0
 22 37  1  0  0  0  0
M  END
> <PUBCHEM_COMPOUND_CID>
5964319

> <PUBCHEM_CONFORMER_RMSD>
0.8

> <PUBCHEM_CONFORMER_DIVERSEORDER>
1
48
31
24
25
39
5
29
15
20
46
26
34
4
40
23
12
14
44
43
11
28
21
3
51
18
49
10
37
6
42
27
19
2
52
45
17
8
13
33
35
7
32
30
41
9
47
16
38
22
36
50

> <PUBCHEM_MMFF94_PARTIAL_CHARGES>
32
1 -0.36
10 0.08
11 0.47
12 -0.15
13 0.03
14 -0.14
15 -0.18
16 0.08
17 -0.15
18 -0.15
19 -0.15
2 -0.36
20 -0.15
21 0.28
22 0.28
23 0.15
24 0.15
25 0.15
26 0.15
27 0.15
28 0.15
29 0.15
3 -0.53
30 0.15
31 0.45
38 0.45
4 -0.57
5 -0.53
6 0.09
7 0.08
8 0.08
9 -0.15

> <PUBCHEM_EFFECTIVE_ROTOR_COUNT>
5

> <PUBCHEM_PHARMACOPHORE_FEATURES>
7
1 1 acceptor
1 2 acceptor
1 3 donor
1 4 acceptor
1 5 donor
6 13 16 17 18 19 20 rings
6 6 7 8 9 10 12 rings

> <PUBCHEM_HEAVY_ATOM_COUNT>
22

> <PUBCHEM_ATOM_DEF_STEREO_COUNT>
0

> <PUBCHEM_ATOM_UDEF_STEREO_COUNT>
0

> <PUBCHEM_BOND_DEF_STEREO_COUNT>
1

> <PUBCHEM_BOND_UDEF_STEREO_COUNT>
0

> <PUBCHEM_ISOTOPIC_ATOM_COUNT>
0

> <PUBCHEM_COMPONENT_COUNT>
1

> <PUBCHEM_CACTVS_TAUTO_COUNT>
24

> <PUBCHEM_CONFORMER_ID>
005B021F00000001

> <PUBCHEM_MMFF94_ENERGY>
88.6162

> <PUBCHEM_FEATURE_SELFOVERLAP>
35.522

> <PUBCHEM_SHAPE_FINGERPRINT>
10366900 7 18341891883658801945
10498660 4 17749666295008319341
10693767 8 17417536800753416622
11089746 13 16009032825630821678
11595378 159 15936961947512566837
12236239 1 15647050481989244185
12403259 415 18411136982624034009
12596602 18 15357698587351648273
12616971 3 15984828172720670097
12730499 353 18411422821097743075
13631057 29 14780409997482036681
13668630 136 16558746828365759853
13911987 19 18129119942981886324
14251751 18 11887665195837226333
14576447 43 17131837534506516846
14739800 52 17022891398292715340
15188451 53 10519686888171509453
15210252 30 17967816011703308580
15475509 35 12678908853721558348
15788980 27 15698000721565796809
15961568 22 17676207978616835380
1813 80 16200159763687992256
18186145 218 18060131072426649171
18222031 100 16630525103284138170
19784866 240 14692572126193279325
20511986 3 15719660027139008743
20645477 70 17632290185873753743
21033648 29 18411408523668644377
21637258 2 15051453761240102428
221357 26 18131348588047084457
22224240 67 12468641672708759156
22289505 5 18339918225521322676
22393880 68 18201711903174992575
22950370 63 14261636118513342206
23402539 116 17603587451963285174
23402655 69 18411983533309613863
23557571 272 18187649115828799567
23559900 14 18187638055829284507
23596394 208 18342731884714655091
2838139 119 17532101655986240564
2916195 48 17822014250199322076
300161 21 15647048266424383791
3060560 45 18131627889949308294
312423 11 15697994180625998059
341906 21 17385994075304582513
3472631 163 17095529508272245311
34797466 226 18408895035607562559
351380 3 15841555154163286500
46194498 28 18337963392736750180
474 4 14273747247751664917
5104073 3 16008749053190031865
5281201 14 18201996608341532433
559249 180 13830137166092758229
5924683 9 8285613405265526921
7471813 234 16271930415261000416
7808743 9 17530965804149366989

> <PUBCHEM_SHAPE_MULTIPOLES>
423.4
13.66
1.83
1.77
6.42
0.27
0.8
-3
-7.32
-0.69
0.14
-0.76
-0.67
1.92

> <PUBCHEM_SHAPE_SELFOVERLAP>
908.774

> <PUBCHEM_SHAPE_VOLUME>
234.2

> <PUBCHEM_COORDINATE_TYPE>
2
5
10

$$$$
