80971
  -OEChem-09302000073D

 20 21  0     0  0  0  0  0  0999 V2000
    3.7375    0.7555   -0.0009 O   0  0  0  0  0  0  0  0  0  0  0  0
    3.3690   -1.4874   -0.0006 O   0  0  0  0  0  0  0  0  0  0  0  0
   -0.1812    1.7424    0.0002 N   0  0  0  0  0  0  0  0  0  0  0  0
   -0.8278   -0.5791    0.0002 C   0  0  0  0  0  0  0  0  0  0  0  0
   -1.1397    0.7966   -0.0001 C   0  0  0  0  0  0  0  0  0  0  0  0
    0.5238   -0.9492    0.0006 C   0  0  0  0  0  0  0  0  0  0  0  0
    1.5137    0.0231    0.0008 C   0  0  0  0  0  0  0  0  0  0  0  0
   -1.8537   -1.5393    0.0001 C   0  0  0  0  0  0  0  0  0  0  0  0
   -2.4825    1.1638   -0.0003 C   0  0  0  0  0  0  0  0  0  0  0  0
    1.1113    1.3432    0.0006 C   0  0  0  0  0  0  0  0  0  0  0  0
   -3.1884   -1.1441   -0.0002 C   0  0  0  0  0  0  0  0  0  0  0  0
   -3.5027    0.2092   -0.0005 C   0  0  0  0  0  0  0  0  0  0  0  0
    2.9208   -0.3348    0.0001 C   0  0  0  0  0  0  0  0  0  0  0  0
    0.7940   -2.0035    0.0006 H   0  0  0  0  0  0  0  0  0  0  0  0
   -1.6187   -2.6014    0.0004 H   0  0  0  0  0  0  0  0  0  0  0  0
   -2.7552    2.2176   -0.0005 H   0  0  0  0  0  0  0  0  0  0  0  0
    1.8126    2.1716    0.0005 H   0  0  0  0  0  0  0  0  0  0  0  0
   -3.9783   -1.8888   -0.0003 H   0  0  0  0  0  0  0  0  0  0  0  0
   -4.5414    0.5267   -0.0008 H   0  0  0  0  0  0  0  0  0  0  0  0
    4.6850    0.5013   -0.0019 H   0  0  0  0  0  0  0  0  0  0  0  0
  1 13  1  0  0  0  0
  1 20  1  0  0  0  0
  2 13  2  0  0  0  0
  3  5  1  0  0  0  0
  3 10  2  0  0  0  0
  4  5  1  0  0  0  0
  4  6  1  0  0  0  0
  4  8  2  0  0  0  0
  5  9  2  0  0  0  0
  6  7  2  0  0  0  0
  6 14  1  0  0  0  0
  7 10  1  0  0  0  0
  7 13  1  0  0  0  0
  8 11  1  0  0  0  0
  8 15  1  0  0  0  0
  9 12  1  0  0  0  0
  9 16  1  0  0  0  0
 10 17  1  0  0  0  0
 11 12  2  0  0  0  0
 11 18  1  0  0  0  0
 12 19  1  0  0  0  0
M  END
> <PUBCHEM_COMPOUND_CID>
80971

> <PUBCHEM_CONFORMER_RMSD>
0.4

> <PUBCHEM_CONFORMER_DIVERSEORDER>
1
2

> <PUBCHEM_MMFF94_PARTIAL_CHARGES>
19
1 -0.65
10 0.16
11 -0.15
12 -0.15
13 0.63
14 0.15
15 0.15
16 0.15
17 0.15
18 0.15
19 0.15
2 -0.57
20 0.5
3 -0.62
5 0.31
6 -0.15
7 0.09
8 -0.15
9 -0.15

> <PUBCHEM_EFFECTIVE_ROTOR_COUNT>
1

> <PUBCHEM_PHARMACOPHORE_FEATURES>
6
1 1 acceptor
1 2 acceptor
1 3 acceptor
3 1 2 13 anion
6 3 4 5 6 7 10 rings
6 4 5 8 9 11 12 rings

> <PUBCHEM_HEAVY_ATOM_COUNT>
13

> <PUBCHEM_ATOM_DEF_STEREO_COUNT>
0

> <PUBCHEM_ATOM_UDEF_STEREO_COUNT>
0

> <PUBCHEM_BOND_DEF_STEREO_COUNT>
0

> <PUBCHEM_BOND_UDEF_STEREO_COUNT>
0

> <PUBCHEM_ISOTOPIC_ATOM_COUNT>
0

> <PUBCHEM_COMPONENT_COUNT>
1

> <PUBCHEM_CACTVS_TAUTO_COUNT>
1

> <PUBCHEM_CONFORMER_ID>
00013C4B00000001

> <PUBCHEM_MMFF94_ENERGY>
39.9223

> <PUBCHEM_FEATURE_SELFOVERLAP>
30.535

> <PUBCHEM_SHAPE_FINGERPRINT>
10130415 120 18408602556576485978
10608611 8 18411976966373573184
11132069 177 18410568474771753040
11769659 78 18411695499923285695
12032990 46 18410580577989800875
12932764 1 17418367030288561238
13024252 1 16226049985762393243
13296908 3 18411138030538018646
14144814 61 18410575084679046242
14325111 11 18410575071894312512
14911166 2 18409157801944114845
15536298 74 18342740766833799124
16945 1 18410575076389720385
18186145 218 17603584119068565790
193761 8 17689999359063845351
200 152 17988915704865296943
20201158 50 18412826880403583407
20510252 161 18272652307573529377
20871998 184 18201721764657014711
21267235 1 18410302397263776642
21501502 16 18339084920567234629
21501925 9 18339352075795776938
23402539 116 18131061624687238525
23402655 69 18196354958967468189
23463225 33 18409449167771662942
23552423 10 18189054376992396309
23559900 14 18341327795966321450
2748010 2 18338512074903681277
3312278 4 18409732884526103898
5104073 3 18410575080368158090
528886 8 18411412912718681683
7364860 26 18124877008503085632
8809292 202 18260834838408358179

> <PUBCHEM_SHAPE_MULTIPOLES>
250.81
5.86
1.67
0.6
2
0.06
0
-0.95
0
-0.17
0
-0.05
-0.01
0

> <PUBCHEM_SHAPE_SELFOVERLAP>
554.149

> <PUBCHEM_SHAPE_VOLUME>
134.5

> <PUBCHEM_COORDINATE_TYPE>
2
5
10

$$$$
