161455
  -OEChem-09302000513D

 27 28  0     1  0  0  0  0  0999 V2000
    2.3986   -1.2745   -0.1999 N   0  0  0  0  0  0  0  0  0  0  0  0
   -0.5670   -0.8919   -0.6236 C   0  0  2  0  0  0  0  0  0  0  0  0
   -1.7432    0.8956   -0.0064 C   0  0  2  0  0  0  0  0  0  0  0  0
    0.5052    0.2213   -0.5579 C   0  0  1  0  0  0  0  0  0  0  0  0
   -1.7655   -0.1042   -1.1626 C   0  0  0  0  0  0  0  0  0  0  0  0
   -0.3049    1.4428   -0.0766 C   0  0  0  0  0  0  0  0  0  0  0  0
   -1.0743   -1.2780    0.7762 C   0  0  0  0  0  0  0  0  0  0  0  0
   -1.8573   -0.0324    1.2155 C   0  0  0  0  0  0  0  0  0  0  0  0
    1.7197   -0.0799    0.3053 C   0  0  2  0  0  0  0  0  0  0  0  0
    2.6887    1.1013    0.3300 C   0  0  0  0  0  0  0  0  0  0  0  0
   -0.2798   -1.7491   -1.2367 H   0  0  0  0  0  0  0  0  0  0  0  0
   -2.5086    1.6733   -0.0379 H   0  0  0  0  0  0  0  0  0  0  0  0
    0.8431    0.4277   -1.5849 H   0  0  0  0  0  0  0  0  0  0  0  0
   -2.6873   -0.6939   -1.2064 H   0  0  0  0  0  0  0  0  0  0  0  0
   -1.5795    0.3579   -2.1379 H   0  0  0  0  0  0  0  0  0  0  0  0
   -0.2369    2.2509   -0.8141 H   0  0  0  0  0  0  0  0  0  0  0  0
    0.0117    1.8383    0.8933 H   0  0  0  0  0  0  0  0  0  0  0  0
   -0.2874   -1.5508    1.4824 H   0  0  0  0  0  0  0  0  0  0  0  0
   -1.7563   -2.1343    0.7071 H   0  0  0  0  0  0  0  0  0  0  0  0
   -2.9031   -0.2946    1.4115 H   0  0  0  0  0  0  0  0  0  0  0  0
   -1.4417    0.4155    2.1236 H   0  0  0  0  0  0  0  0  0  0  0  0
    1.4250   -0.2671    1.3432 H   0  0  0  0  0  0  0  0  0  0  0  0
    3.5843    0.8564    0.9130 H   0  0  0  0  0  0  0  0  0  0  0  0
    3.0145    1.3727   -0.6805 H   0  0  0  0  0  0  0  0  0  0  0  0
    2.2434    1.9880    0.7906 H   0  0  0  0  0  0  0  0  0  0  0  0
    1.7899   -2.0860   -0.1045 H   0  0  0  0  0  0  0  0  0  0  0  0
    3.2205   -1.4688    0.3708 H   0  0  0  0  0  0  0  0  0  0  0  0
  1  9  1  0  0  0  0
  1 26  1  0  0  0  0
  1 27  1  0  0  0  0
  2  4  1  0  0  0  0
  2  5  1  0  0  0  0
  2  7  1  0  0  0  0
  2 11  1  0  0  0  0
  3  5  1  0  0  0  0
  3  6  1  0  0  0  0
  3  8  1  0  0  0  0
  3 12  1  0  0  0  0
  4  6  1  0  0  0  0
  4  9  1  0  0  0  0
  4 13  1  0  0  0  0
  5 14  1  0  0  0  0
  5 15  1  0  0  0  0
  6 16  1  0  0  0  0
  6 17  1  0  0  0  0
  7  8  1  0  0  0  0
  7 18  1  0  0  0  0
  7 19  1  0  0  0  0
  8 20  1  0  0  0  0
  8 21  1  0  0  0  0
  9 10  1  0  0  0  0
  9 22  1  0  0  0  0
 10 23  1  0  0  0  0
 10 24  1  0  0  0  0
 10 25  1  0  0  0  0
M  END
> <PUBCHEM_COMPOUND_CID>
161455

> <PUBCHEM_CONFORMER_RMSD>
0.4

> <PUBCHEM_CONFORMER_DIVERSEORDER>
8
9
14
4
11
10
13
6
1
12
3
7
2
5

> <PUBCHEM_MMFF94_PARTIAL_CHARGES>
4
1 -0.99
26 0.36
27 0.36
9 0.27

> <PUBCHEM_EFFECTIVE_ROTOR_COUNT>
2

> <PUBCHEM_PHARMACOPHORE_FEATURES>
3
1 1 cation
1 1 donor
7 2 3 4 5 6 7 8 rings

> <PUBCHEM_HEAVY_ATOM_COUNT>
10

> <PUBCHEM_ATOM_DEF_STEREO_COUNT>
0

> <PUBCHEM_ATOM_UDEF_STEREO_COUNT>
4

> <PUBCHEM_BOND_DEF_STEREO_COUNT>
0

> <PUBCHEM_BOND_UDEF_STEREO_COUNT>
0

> <PUBCHEM_ISOTOPIC_ATOM_COUNT>
0

> <PUBCHEM_COMPONENT_COUNT>
1

> <PUBCHEM_CACTVS_TAUTO_COUNT>
1

> <PUBCHEM_CONFORMER_ID>
000276AF00000008

> <PUBCHEM_MMFF94_ENERGY>
25.0975

> <PUBCHEM_FEATURE_SELFOVERLAP>
15.223

> <PUBCHEM_SHAPE_FINGERPRINT>
10857977 72 18041565852724575416
12423570 1 10078262552799778967
12524768 44 18410290302814790548
13024252 1 17676196987858236173
137420 1 9708336409841876711
16945 1 18189630508205736725
20645464 45 18259699004231149026
20653085 51 17987519212785494501
21040471 1 18115308860691108877
21922407 69 16917070009435390026
23552423 10 18409443674624600998
29004967 10 18187931724049265440
369184 2 18412538812467223137
5084963 1 17774991337381902062

> <PUBCHEM_SHAPE_MULTIPOLES>
200.81
3.27
1.41
1.06
2.13
0
-0.04
-0.16
-0.35
0.2
-0.06
-0.54
0.1
0.2

> <PUBCHEM_SHAPE_SELFOVERLAP>
416.342

> <PUBCHEM_SHAPE_VOLUME>
119.7

> <PUBCHEM_COORDINATE_TYPE>
2
5
10

$$$$
