10687859
  -OEChem-09302000033D

 49 49  0     1  0  0  0  0  0999 V2000
    1.7993   -0.7144    0.0211 O   0  0  0  0  0  0  0  0  0  0  0  0
    0.0320   -0.5068    1.5304 O   0  0  0  0  0  0  0  0  0  0  0  0
    3.1195    3.0863    0.8446 O   0  0  0  0  0  0  0  0  0  0  0  0
    0.3518    2.3045    1.4843 O   0  0  0  0  0  0  0  0  0  0  0  0
    4.0264    1.7354   -1.5445 O   0  0  0  0  0  0  0  0  0  0  0  0
    4.3814   -1.5878   -0.4886 O   0  0  0  0  0  0  0  0  0  0  0  0
   -3.5405   -0.4348   -1.8545 O   0  0  0  0  0  0  0  0  0  0  0  0
    2.3527    2.1009    0.1508 C   0  0  2  0  0  0  0  0  0  0  0  0
    1.4060    1.4091    1.1318 C   0  0  2  0  0  0  0  0  0  0  0  0
    3.3244    1.1022   -0.4781 C   0  0  1  0  0  0  0  0  0  0  0  0
    0.7841    0.1564    0.5147 C   0  0  1  0  0  0  0  0  0  0  0  0
    2.5749   -0.1174   -1.0195 C   0  0  1  0  0  0  0  0  0  0  0  0
   -0.5833   -1.6948    1.0263 C   0  0  2  0  0  0  0  0  0  0  0  0
    3.5331   -1.1808   -1.5468 C   0  0  0  0  0  0  0  0  0  0  0  0
   -1.6129   -1.3077   -0.0607 C   0  0  0  0  0  0  0  0  0  0  0  0
   -1.3166   -2.3306    2.2140 C   0  0  0  0  0  0  0  0  0  0  0  0
    0.4415   -2.6818    0.5054 C   0  0  0  0  0  0  0  0  0  0  0  0
   -2.6749   -0.2933    0.3906 C   0  0  0  0  0  0  0  0  0  0  0  0
   -3.6371    0.0700   -0.7348 C   0  0  0  0  0  0  0  0  0  0  0  0
    0.4983   -3.2042   -0.7260 C   0  0  0  0  0  0  0  0  0  0  0  0
   -4.7317    1.0667   -0.4705 C   0  0  0  0  0  0  0  0  0  0  0  0
   -5.6446    1.3784   -1.6196 C   0  0  0  0  0  0  0  0  0  0  0  0
   -4.8836    1.6445    0.7293 C   0  0  0  0  0  0  0  0  0  0  0  0
    1.7855    2.6366   -0.6203 H   0  0  0  0  0  0  0  0  0  0  0  0
    1.9351    1.1611    2.0597 H   0  0  0  0  0  0  0  0  0  0  0  0
    4.0641    0.8183    0.2791 H   0  0  0  0  0  0  0  0  0  0  0  0
    0.1297    0.4782   -0.3018 H   0  0  0  0  0  0  0  0  0  0  0  0
    1.9108    0.1701   -1.8454 H   0  0  0  0  0  0  0  0  0  0  0  0
    2.9823   -2.0640   -1.8821 H   0  0  0  0  0  0  0  0  0  0  0  0
    4.1405   -0.8181   -2.3820 H   0  0  0  0  0  0  0  0  0  0  0  0
   -1.1331   -0.9266   -0.9700 H   0  0  0  0  0  0  0  0  0  0  0  0
   -2.1477   -2.2134   -0.3836 H   0  0  0  0  0  0  0  0  0  0  0  0
   -1.9315   -3.1841    1.9082 H   0  0  0  0  0  0  0  0  0  0  0  0
   -0.6011   -2.6845    2.9673 H   0  0  0  0  0  0  0  0  0  0  0  0
   -1.9503   -1.6072    2.7382 H   0  0  0  0  0  0  0  0  0  0  0  0
    3.7185    3.4974    0.1980 H   0  0  0  0  0  0  0  0  0  0  0  0
   -0.1306    2.5382    0.6729 H   0  0  0  0  0  0  0  0  0  0  0  0
    3.3758    2.0007   -2.2168 H   0  0  0  0  0  0  0  0  0  0  0  0
    1.1984   -3.0074    1.2187 H   0  0  0  0  0  0  0  0  0  0  0  0
   -3.2718   -0.7165    1.2044 H   0  0  0  0  0  0  0  0  0  0  0  0
   -2.1869    0.6253    0.7317 H   0  0  0  0  0  0  0  0  0  0  0  0
    5.1075   -0.9448   -0.4250 H   0  0  0  0  0  0  0  0  0  0  0  0
    1.2828   -3.9132   -0.9713 H   0  0  0  0  0  0  0  0  0  0  0  0
   -0.2032   -2.9625   -1.5139 H   0  0  0  0  0  0  0  0  0  0  0  0
   -6.1566    0.4717   -1.9583 H   0  0  0  0  0  0  0  0  0  0  0  0
   -5.0758    1.7927   -2.4586 H   0  0  0  0  0  0  0  0  0  0  0  0
   -6.4132    2.1101   -1.3481 H   0  0  0  0  0  0  0  0  0  0  0  0
   -5.6806    2.3617    0.9009 H   0  0  0  0  0  0  0  0  0  0  0  0
   -4.2405    1.4376    1.5762 H   0  0  0  0  0  0  0  0  0  0  0  0
  1 11  1  0  0  0  0
  1 12  1  0  0  0  0
  2 11  1  0  0  0  0
  2 13  1  0  0  0  0
  3  8  1  0  0  0  0
  3 36  1  0  0  0  0
  4  9  1  0  0  0  0
  4 37  1  0  0  0  0
  5 10  1  0  0  0  0
  5 38  1  0  0  0  0
  6 14  1  0  0  0  0
  6 42  1  0  0  0  0
  7 19  2  0  0  0  0
  8  9  1  0  0  0  0
  8 10  1  0  0  0  0
  8 24  1  0  0  0  0
  9 11  1  0  0  0  0
  9 25  1  0  0  0  0
 10 12  1  0  0  0  0
 10 26  1  0  0  0  0
 11 27  1  0  0  0  0
 12 14  1  0  0  0  0
 12 28  1  0  0  0  0
 13 15  1  0  0  0  0
 13 16  1  0  0  0  0
 13 17  1  0  0  0  0
 14 29  1  0  0  0  0
 14 30  1  0  0  0  0
 15 18  1  0  0  0  0
 15 31  1  0  0  0  0
 15 32  1  0  0  0  0
 16 33  1  0  0  0  0
 16 34  1  0  0  0  0
 16 35  1  0  0  0  0
 17 20  2  0  0  0  0
 17 39  1  0  0  0  0
 18 19  1  0  0  0  0
 18 40  1  0  0  0  0
 18 41  1  0  0  0  0
 19 21  1  0  0  0  0
 20 43  1  0  0  0  0
 20 44  1  0  0  0  0
 21 22  1  0  0  0  0
 21 23  2  0  0  0  0
 22 45  1  0  0  0  0
 22 46  1  0  0  0  0
 22 47  1  0  0  0  0
 23 48  1  0  0  0  0
 23 49  1  0  0  0  0
M  END
> <PUBCHEM_COMPOUND_CID>
10687859

> <PUBCHEM_CONFORMER_RMSD>
1

> <PUBCHEM_CONFORMER_DIVERSEORDER>
1
22
25
7
21
3
17
14
10
20
5
23
19
4
15
16
24
6
8
18
11
13
12
9
2

> <PUBCHEM_MMFF94_PARTIAL_CHARGES>
30
1 -0.56
10 0.28
11 0.56
12 0.28
13 0.42
14 0.28
17 -0.29
18 0.06
19 0.49
2 -0.56
20 -0.3
21 -0.12
22 0.14
23 -0.3
3 -0.68
36 0.4
37 0.4
38 0.4
39 0.15
4 -0.68
42 0.4
43 0.15
44 0.15
48 0.15
49 0.15
5 -0.68
6 -0.68
7 -0.57
8 0.28
9 0.28

> <PUBCHEM_EFFECTIVE_ROTOR_COUNT>
9.2

> <PUBCHEM_PHARMACOPHORE_FEATURES>
13
1 1 acceptor
1 2 acceptor
1 20 hydrophobe
1 3 acceptor
1 3 donor
1 4 acceptor
1 4 donor
1 5 acceptor
1 5 donor
1 6 acceptor
1 6 donor
1 7 acceptor
6 1 8 9 10 11 12 rings

> <PUBCHEM_HEAVY_ATOM_COUNT>
23

> <PUBCHEM_ATOM_DEF_STEREO_COUNT>
6

> <PUBCHEM_ATOM_UDEF_STEREO_COUNT>
0

> <PUBCHEM_BOND_DEF_STEREO_COUNT>
0

> <PUBCHEM_BOND_UDEF_STEREO_COUNT>
0

> <PUBCHEM_ISOTOPIC_ATOM_COUNT>
0

> <PUBCHEM_COMPONENT_COUNT>
1

> <PUBCHEM_CACTVS_TAUTO_COUNT>
2

> <PUBCHEM_CONFORMER_ID>
00A3157300000001

> <PUBCHEM_MMFF94_ENERGY>
67.4604

> <PUBCHEM_FEATURE_SELFOVERLAP>
66.035

> <PUBCHEM_SHAPE_FINGERPRINT>
10165383 225 17749683882893998063
10498660 4 18260817212268815741
10906281 52 18271821128981771520
11273773 38 17187003086668782297
11578080 2 17970366990817598100
12035759 4 17986679173180320649
12730499 353 18335145272116674195
12769317 202 18261948527807125975
12892183 10 11818991881367649151
13464514 151 18337115562092763411
13544653 18 10375872970033039391
14251751 18 15122925371441569653
14341114 328 13912612641082750573
14848178 96 18335137605120236797
17134986 127 18410283727288665871
18186145 218 18260546723285184885
192875 21 18131358470998596770
20645477 70 17630908168709406620
21524375 3 18189034530180942131
21756936 100 14635451445079593814
221357 26 18273213097749244053
22182313 1 18193851546150627778
22393880 68 17774162460549997252
23559900 14 18342462564980584952
238 59 18202284748685422135
25 1 18409168796733533211
251288 83 10159697993043138044
2637199 183 18335985272955866163
2748010 2 18194981835672406362
3009799 131 18337955593798976246
3060560 45 18271796887516667423
474 4 18334007273065100567
633830 44 18410567388625075197
6442390 28 17822302292587509395
7399639 24 17548702236522713530
7808743 9 17532097261527944612
9981440 41 17410468288862632193

> <PUBCHEM_SHAPE_MULTIPOLES>
432.24
9.4
3.32
1.73
9.32
0.61
0.08
-6.08
-5.15
-1.92
0.85
0.42
0.18
1.14

> <PUBCHEM_SHAPE_SELFOVERLAP>
868.567

> <PUBCHEM_SHAPE_VOLUME>
250.7

> <PUBCHEM_COORDINATE_TYPE>
2
5
10

$$$$
