16637983
  -OEChem-09302000393D

 21 21  0     0  0  0  0  0  0999 V2000
   -4.4420   -0.3841   -0.0768 O   0  0  0  0  0  0  0  0  0  0  0  0
    3.8813    1.0801    0.2247 O   0  0  0  0  0  0  0  0  0  0  0  0
    4.3019   -1.1266   -0.2716 N   0  0  0  0  0  0  0  0  0  0  0  0
   -0.3485    0.2875    0.0697 C   0  0  0  0  0  0  0  0  0  0  0  0
   -0.8477   -1.0087    0.1978 C   0  0  0  0  0  0  0  0  0  0  0  0
   -1.2251    1.3580   -0.1075 C   0  0  0  0  0  0  0  0  0  0  0  0
   -2.2233   -1.2344    0.1487 C   0  0  0  0  0  0  0  0  0  0  0  0
   -2.6006    1.1323   -0.1568 C   0  0  0  0  0  0  0  0  0  0  0  0
   -3.0997   -0.1638   -0.0287 C   0  0  0  0  0  0  0  0  0  0  0  0
    1.0857    0.5228    0.1209 C   0  0  0  0  0  0  0  0  0  0  0  0
    2.0383   -0.4121   -0.0948 C   0  0  0  0  0  0  0  0  0  0  0  0
    3.4797   -0.0511   -0.0255 C   0  0  0  0  0  0  0  0  0  0  0  0
   -0.2057   -1.8700    0.3576 H   0  0  0  0  0  0  0  0  0  0  0  0
   -0.8546    2.3752   -0.2107 H   0  0  0  0  0  0  0  0  0  0  0  0
   -2.6071   -2.2456    0.2535 H   0  0  0  0  0  0  0  0  0  0  0  0
   -3.2730    1.9747   -0.2956 H   0  0  0  0  0  0  0  0  0  0  0  0
    1.3832    1.5458    0.3420 H   0  0  0  0  0  0  0  0  0  0  0  0
    1.8001   -1.4401   -0.3445 H   0  0  0  0  0  0  0  0  0  0  0  0
   -4.8964    0.4664   -0.2042 H   0  0  0  0  0  0  0  0  0  0  0  0
    3.9503   -2.0568   -0.4762 H   0  0  0  0  0  0  0  0  0  0  0  0
    5.3110   -1.0211   -0.2554 H   0  0  0  0  0  0  0  0  0  0  0  0
  1  9  1  0  0  0  0
  1 19  1  0  0  0  0
  2 12  2  0  0  0  0
  3 12  1  0  0  0  0
  3 20  1  0  0  0  0
  3 21  1  0  0  0  0
  4  5  2  0  0  0  0
  4  6  1  0  0  0  0
  4 10  1  0  0  0  0
  5  7  1  0  0  0  0
  5 13  1  0  0  0  0
  6  8  2  0  0  0  0
  6 14  1  0  0  0  0
  7  9  2  0  0  0  0
  7 15  1  0  0  0  0
  8  9  1  0  0  0  0
  8 16  1  0  0  0  0
 10 11  2  0  0  0  0
 10 17  1  0  0  0  0
 11 12  1  0  0  0  0
 11 18  1  0  0  0  0
M  END
> <PUBCHEM_COMPOUND_CID>
16637983

> <PUBCHEM_CONFORMER_RMSD>
0.6

> <PUBCHEM_CONFORMER_DIVERSEORDER>
1
2
3

> <PUBCHEM_MMFF94_PARTIAL_CHARGES>
21
1 -0.53
10 -0.18
11 -0.14
12 0.62
13 0.15
14 0.15
15 0.15
16 0.15
17 0.15
18 0.15
19 0.45
2 -0.57
20 0.37
21 0.37
3 -0.8
4 0.03
5 -0.15
6 -0.15
7 -0.15
8 -0.15
9 0.08

> <PUBCHEM_EFFECTIVE_ROTOR_COUNT>
2

> <PUBCHEM_PHARMACOPHORE_FEATURES>
4
1 1 donor
1 2 acceptor
1 3 donor
6 4 5 6 7 8 9 rings

> <PUBCHEM_HEAVY_ATOM_COUNT>
12

> <PUBCHEM_ATOM_DEF_STEREO_COUNT>
0

> <PUBCHEM_ATOM_UDEF_STEREO_COUNT>
0

> <PUBCHEM_BOND_DEF_STEREO_COUNT>
1

> <PUBCHEM_BOND_UDEF_STEREO_COUNT>
0

> <PUBCHEM_ISOTOPIC_ATOM_COUNT>
0

> <PUBCHEM_COMPONENT_COUNT>
1

> <PUBCHEM_CACTVS_TAUTO_COUNT>
4

> <PUBCHEM_CONFORMER_ID>
00FDE01F00000001

> <PUBCHEM_MMFF94_ENERGY>
30.1587

> <PUBCHEM_FEATURE_SELFOVERLAP>
20.297

> <PUBCHEM_SHAPE_FINGERPRINT>
10608611 8 18412258428755532288
11062470 55 18411418431561700838
12032990 46 18336270127955924203
12932764 1 16773503413369134240
13024252 1 16008750208535727313
13690532 89 18335420162296395231
14144814 61 18261390022939134168
14325111 11 18410292488963778032
14911166 2 18334848438294409727
14993402 34 17385444319136981023
18186145 218 17894627050438229532
190213 19 17603587434688164850
1986462 14 18336549322009523740
200 152 17632291263715307639
20201158 50 18272091586644687846
20279233 1 18272093803211757494
20510252 161 18342458106198299289
20528008 55 18341609347482232224
20645477 70 18273217461351673094
20871998 184 18271812379627208407
21119208 17 17748827410179498726
22485316 2 18272647978209363446
23402539 116 18202275897485591501
23559900 14 18412258429097981992
69090 78 18343861134427158287
7364860 26 18266743674068019676
9709674 26 18411987940257919518

> <PUBCHEM_SHAPE_MULTIPOLES>
230.23
7.74
1.32
0.61
4.35
0.07
0
-0.9
-0.36
-0.21
0
0
0
0.25

> <PUBCHEM_SHAPE_SELFOVERLAP>
479.286

> <PUBCHEM_SHAPE_VOLUME>
131.2

> <PUBCHEM_COORDINATE_TYPE>
2
5
10

$$$$
