129722937
  -OEChem-09302000243D

 43 42  0     1  0  0  0  0  0999 V2000
    0.2655    1.8467   -0.4115 O   0  0  0  0  0  0  0  0  0  0  0  0
    1.2746   -1.1496    1.4519 O   0  0  0  0  0  0  0  0  0  0  0  0
   -1.1259   -1.4510    0.2145 O   0  0  0  0  0  0  0  0  0  0  0  0
    3.6294   -0.5253   -0.3222 O   0  0  0  0  0  0  0  0  0  0  0  0
   -2.9159    0.7214    0.2087 O   0  0  0  0  0  0  0  0  0  0  0  0
   -1.2405   -2.6713   -1.7436 O   0  0  0  0  0  0  0  0  0  0  0  0
    3.9538    1.6986   -0.8573 O   0  0  0  0  0  0  0  0  0  0  0  0
   -4.6193    1.5316   -1.1252 O   0  0  0  0  0  0  0  0  0  0  0  0
    0.0810    0.6283    0.3194 C   0  0  2  0  0  0  0  0  0  0  0  0
    1.4540    0.0023    0.6305 C   0  0  2  0  0  0  0  0  0  0  0  0
   -0.8366   -0.2650   -0.5371 C   0  0  2  0  0  0  0  0  0  0  0  0
    2.2460   -0.4069   -0.6121 C   0  0  0  0  0  0  0  0  0  0  0  0
   -2.1656    0.3665   -0.9464 C   0  0  0  0  0  0  0  0  0  0  0  0
    0.6250    2.9107    0.4527 C   0  0  0  0  0  0  0  0  0  0  0  0
    1.0305   -0.7883    2.8026 C   0  0  0  0  0  0  0  0  0  0  0  0
   -1.3040   -2.5812   -0.5251 C   0  0  0  0  0  0  0  0  0  0  0  0
    4.3749    0.6109   -0.4873 C   0  0  0  0  0  0  0  0  0  0  0  0
   -4.1325    1.2992   -0.0268 C   0  0  0  0  0  0  0  0  0  0  0  0
   -1.5976   -3.7332    0.3875 C   0  0  0  0  0  0  0  0  0  0  0  0
    5.8087    0.3377   -0.1470 C   0  0  0  0  0  0  0  0  0  0  0  0
   -4.8054    1.6178    1.2738 C   0  0  0  0  0  0  0  0  0  0  0  0
   -0.4561    0.8431    1.2503 H   0  0  0  0  0  0  0  0  0  0  0  0
    2.0754    0.7188    1.1794 H   0  0  0  0  0  0  0  0  0  0  0  0
   -0.3034   -0.5094   -1.4649 H   0  0  0  0  0  0  0  0  0  0  0  0
    1.9196   -1.3934   -0.9608 H   0  0  0  0  0  0  0  0  0  0  0  0
    2.0922    0.2893   -1.4448 H   0  0  0  0  0  0  0  0  0  0  0  0
   -2.7540   -0.3487   -1.5333 H   0  0  0  0  0  0  0  0  0  0  0  0
   -1.9905    1.2590   -1.5581 H   0  0  0  0  0  0  0  0  0  0  0  0
    0.6522    3.8293   -0.1407 H   0  0  0  0  0  0  0  0  0  0  0  0
    1.6188    2.7682    0.8834 H   0  0  0  0  0  0  0  0  0  0  0  0
   -0.1182    3.0455    1.2450 H   0  0  0  0  0  0  0  0  0  0  0  0
    0.0530   -0.3172    2.9280 H   0  0  0  0  0  0  0  0  0  0  0  0
    1.8216   -0.1392    3.1913 H   0  0  0  0  0  0  0  0  0  0  0  0
    1.0292   -1.7067    3.3973 H   0  0  0  0  0  0  0  0  0  0  0  0
   -0.7601   -3.8853    1.0731 H   0  0  0  0  0  0  0  0  0  0  0  0
   -1.7307   -4.6419   -0.2066 H   0  0  0  0  0  0  0  0  0  0  0  0
   -2.5196   -3.5409    0.9419 H   0  0  0  0  0  0  0  0  0  0  0  0
    5.8877    0.0234    0.8967 H   0  0  0  0  0  0  0  0  0  0  0  0
    6.3940    1.2519   -0.2810 H   0  0  0  0  0  0  0  0  0  0  0  0
    6.2070   -0.4320   -0.8127 H   0  0  0  0  0  0  0  0  0  0  0  0
   -4.9668    0.6984    1.8421 H   0  0  0  0  0  0  0  0  0  0  0  0
   -5.7765    2.0808    1.0763 H   0  0  0  0  0  0  0  0  0  0  0  0
   -4.1937    2.3211    1.8445 H   0  0  0  0  0  0  0  0  0  0  0  0
  1  9  1  0  0  0  0
  1 14  1  0  0  0  0
  2 10  1  0  0  0  0
  2 15  1  0  0  0  0
  3 11  1  0  0  0  0
  3 16  1  0  0  0  0
  4 12  1  0  0  0  0
  4 17  1  0  0  0  0
  5 13  1  0  0  0  0
  5 18  1  0  0  0  0
  6 16  2  0  0  0  0
  7 17  2  0  0  0  0
  8 18  2  0  0  0  0
  9 10  1  0  0  0  0
  9 11  1  0  0  0  0
  9 22  1  0  0  0  0
 10 12  1  0  0  0  0
 10 23  1  0  0  0  0
 11 13  1  0  0  0  0
 11 24  1  0  0  0  0
 12 25  1  0  0  0  0
 12 26  1  0  0  0  0
 13 27  1  0  0  0  0
 13 28  1  0  0  0  0
 14 29  1  0  0  0  0
 14 30  1  0  0  0  0
 14 31  1  0  0  0  0
 15 32  1  0  0  0  0
 15 33  1  0  0  0  0
 15 34  1  0  0  0  0
 16 19  1  0  0  0  0
 17 20  1  0  0  0  0
 18 21  1  0  0  0  0
 19 35  1  0  0  0  0
 19 36  1  0  0  0  0
 19 37  1  0  0  0  0
 20 38  1  0  0  0  0
 20 39  1  0  0  0  0
 20 40  1  0  0  0  0
 21 41  1  0  0  0  0
 21 42  1  0  0  0  0
 21 43  1  0  0  0  0
M  END
> <PUBCHEM_COMPOUND_CID>
129722937

> <PUBCHEM_CONFORMER_RMSD>
1

> <PUBCHEM_CONFORMER_DIVERSEORDER>
1
16
84
30
55
56
23
45
72
68
90
93
4
31
14
24
49
8
20
96
76
80
13
79
17
50
27
53
85
38
69
42
73
81
63
15
82
75
67
32
18
58
95
77
10
47
5
91
3
78
41
66
60
87
64
89
7
40
35
97
25
61
19
88
11
83
74
44
28
46
12
86
9
36
51
52
59
62
33
71
2
26
48
57
94
70
92
37
43
34
65
22
98
54
39
29
6
21

> <PUBCHEM_MMFF94_PARTIAL_CHARGES>
21
1 -0.56
10 0.28
11 0.28
12 0.28
13 0.28
14 0.28
15 0.28
16 0.66
17 0.66
18 0.66
19 0.06
2 -0.56
20 0.06
21 0.06
3 -0.43
4 -0.43
5 -0.43
6 -0.57
7 -0.57
8 -0.57
9 0.28

> <PUBCHEM_EFFECTIVE_ROTOR_COUNT>
12

> <PUBCHEM_PHARMACOPHORE_FEATURES>
5
1 1 acceptor
1 2 acceptor
1 6 acceptor
1 7 acceptor
1 8 acceptor

> <PUBCHEM_HEAVY_ATOM_COUNT>
21

> <PUBCHEM_ATOM_DEF_STEREO_COUNT>
3

> <PUBCHEM_ATOM_UDEF_STEREO_COUNT>
0

> <PUBCHEM_BOND_DEF_STEREO_COUNT>
0

> <PUBCHEM_BOND_UDEF_STEREO_COUNT>
0

> <PUBCHEM_ISOTOPIC_ATOM_COUNT>
0

> <PUBCHEM_COMPONENT_COUNT>
1

> <PUBCHEM_CACTVS_TAUTO_COUNT>
1

> <PUBCHEM_CONFORMER_ID>
07BB6A3900000001

> <PUBCHEM_MMFF94_ENERGY>
46.7239

> <PUBCHEM_FEATURE_SELFOVERLAP>
25.376

> <PUBCHEM_SHAPE_FINGERPRINT>
10062212 137 18261949765005691830
10382601 240 17768271028382882625
10906281 52 17988379108399128796
11578080 2 17201354319896135168
12788726 201 17559964225363261600
12969540 114 18335409132873335077
14790565 3 18340496547311019385
15048467 5 17418094291492057032
19765921 60 17748821925938837080
19784866 9 17676203533499581152
20600515 1 18057010636978915968
20681677 155 18413666920293198082
20871999 31 18340762744993411398
22224240 67 18412272714438855097
229495 10 16879608424158803983
23402539 116 18272928306640887444
23557571 272 18271534203564812454
23558518 356 17755300411289464416
23559900 14 18343022190850871830
293599 30 18410577249421944501
298252 57 18410015416170381515
34934 24 18335416868293771580
350125 39 18339368582146334125
3759504 43 18407479959842697143
394222 165 17750230305528499688
5104073 3 18336821018163496264
59755656 215 18270689654492248350
59755656 520 17022626386199437634
633830 44 18057894532916674861
70251023 43 17766266953129160151
7832392 63 18339358673140096940
81228 2 17979616147065579447

> <PUBCHEM_SHAPE_MULTIPOLES>
385.22
8.94
3.23
1.53
4.36
2.36
-1
-5.59
1.25
-2.64
0.17
-0.15
0.48
-0.73

> <PUBCHEM_SHAPE_SELFOVERLAP>
744.889

> <PUBCHEM_SHAPE_VOLUME>
233.9

> <PUBCHEM_COORDINATE_TYPE>
2
5
10

$$$$
