15608113
  -OEChem-09302000233D

 41 40  0     1  0  0  0  0  0999 V2000
    0.2534   -0.7837   -1.4674 O   0  0  0  0  0  0  0  0  0  0  0  0
   -0.0824   -1.5233    1.2300 O   0  0  0  0  0  0  0  0  0  0  0  0
   -2.1711   -0.7277    0.0241 O   0  0  0  0  0  0  0  0  0  0  0  0
   -1.2439    2.7971    0.3256 O   0  0  0  0  0  0  0  0  0  0  0  0
    2.8238    0.2335   -0.0343 O   0  0  0  0  0  0  0  0  0  0  0  0
   -4.0205   -0.0796   -1.1993 O   0  0  0  0  0  0  0  0  0  0  0  0
    4.7932   -0.9385    0.2567 O   0  0  0  0  0  0  0  0  0  0  0  0
    0.0171    0.1969   -0.4498 C   0  0  2  0  0  0  0  0  0  0  0  0
    0.6471   -0.3507    0.8450 C   0  0  2  0  0  0  0  0  0  0  0  0
   -1.4953    0.4724   -0.3458 C   0  0  2  0  0  0  0  0  0  0  0  0
   -1.8600    1.5641    0.6608 C   0  0  0  0  0  0  0  0  0  0  0  0
    2.1232   -0.7292    0.7437 C   0  0  0  0  0  0  0  0  0  0  0  0
    0.2061   -0.2011   -2.7582 C   0  0  0  0  0  0  0  0  0  0  0  0
    0.0784   -1.7926    2.6116 C   0  0  0  0  0  0  0  0  0  0  0  0
   -3.4333   -0.8733   -0.4766 C   0  0  0  0  0  0  0  0  0  0  0  0
   -1.5457    3.8101    1.2771 C   0  0  0  0  0  0  0  0  0  0  0  0
    4.1617    0.0050   -0.1994 C   0  0  0  0  0  0  0  0  0  0  0  0
   -4.0164   -2.1721   -0.0084 C   0  0  0  0  0  0  0  0  0  0  0  0
    4.7648    1.0929   -1.0354 C   0  0  0  0  0  0  0  0  0  0  0  0
    0.5374    1.1276   -0.7120 H   0  0  0  0  0  0  0  0  0  0  0  0
    0.5423    0.4292    1.6104 H   0  0  0  0  0  0  0  0  0  0  0  0
   -1.8352    0.8091   -1.3317 H   0  0  0  0  0  0  0  0  0  0  0  0
   -2.9487    1.7008    0.6749 H   0  0  0  0  0  0  0  0  0  0  0  0
   -1.5759    1.2600    1.6756 H   0  0  0  0  0  0  0  0  0  0  0  0
    2.2300   -1.7184    0.2803 H   0  0  0  0  0  0  0  0  0  0  0  0
    2.5700   -0.7800    1.7436 H   0  0  0  0  0  0  0  0  0  0  0  0
    0.5195   -0.9620   -3.4793 H   0  0  0  0  0  0  0  0  0  0  0  0
    0.8987    0.6425   -2.8410 H   0  0  0  0  0  0  0  0  0  0  0  0
   -0.8065    0.1073   -3.0286 H   0  0  0  0  0  0  0  0  0  0  0  0
   -0.5708   -2.6350    2.8676 H   0  0  0  0  0  0  0  0  0  0  0  0
   -0.2271   -0.9353    3.2196 H   0  0  0  0  0  0  0  0  0  0  0  0
    1.1057   -2.0816    2.8482 H   0  0  0  0  0  0  0  0  0  0  0  0
   -1.0517    4.7337    0.9640 H   0  0  0  0  0  0  0  0  0  0  0  0
   -1.1694    3.5308    2.2660 H   0  0  0  0  0  0  0  0  0  0  0  0
   -2.6247    3.9876    1.3195 H   0  0  0  0  0  0  0  0  0  0  0  0
   -3.4066   -3.0036   -0.3708 H   0  0  0  0  0  0  0  0  0  0  0  0
   -5.0284   -2.2811   -0.4089 H   0  0  0  0  0  0  0  0  0  0  0  0
   -4.0708   -2.1813    1.0831 H   0  0  0  0  0  0  0  0  0  0  0  0
    4.2866    1.1126   -2.0180 H   0  0  0  0  0  0  0  0  0  0  0  0
    5.8322    0.8968   -1.1713 H   0  0  0  0  0  0  0  0  0  0  0  0
    4.6481    2.0552   -0.5309 H   0  0  0  0  0  0  0  0  0  0  0  0
  1  8  1  0  0  0  0
  1 13  1  0  0  0  0
  2  9  1  0  0  0  0
  2 14  1  0  0  0  0
  3 10  1  0  0  0  0
  3 15  1  0  0  0  0
  4 11  1  0  0  0  0
  4 16  1  0  0  0  0
  5 12  1  0  0  0  0
  5 17  1  0  0  0  0
  6 15  2  0  0  0  0
  7 17  2  0  0  0  0
  8  9  1  0  0  0  0
  8 10  1  0  0  0  0
  8 20  1  0  0  0  0
  9 12  1  0  0  0  0
  9 21  1  0  0  0  0
 10 11  1  0  0  0  0
 10 22  1  0  0  0  0
 11 23  1  0  0  0  0
 11 24  1  0  0  0  0
 12 25  1  0  0  0  0
 12 26  1  0  0  0  0
 13 27  1  0  0  0  0
 13 28  1  0  0  0  0
 13 29  1  0  0  0  0
 14 30  1  0  0  0  0
 14 31  1  0  0  0  0
 14 32  1  0  0  0  0
 15 18  1  0  0  0  0
 16 33  1  0  0  0  0
 16 34  1  0  0  0  0
 16 35  1  0  0  0  0
 17 19  1  0  0  0  0
 18 36  1  0  0  0  0
 18 37  1  0  0  0  0
 18 38  1  0  0  0  0
 19 39  1  0  0  0  0
 19 40  1  0  0  0  0
 19 41  1  0  0  0  0
M  END
> <PUBCHEM_COMPOUND_CID>
15608113

> <PUBCHEM_CONFORMER_RMSD>
1

> <PUBCHEM_CONFORMER_DIVERSEORDER>
1
15
13
54
30
70
42
25
69
58
21
7
57
29
59
49
53
37
4
52
44
63
28
31
39
17
51
20
24
9
19
64
62
11
43
46
45
10
41
27
50
65
18
61
14
16
26
47
8
34
48
3
35
38
67
23
66
22
32
40
60
6
68
5
12
55
36
56
33
2

> <PUBCHEM_MMFF94_PARTIAL_CHARGES>
19
1 -0.56
10 0.28
11 0.28
12 0.28
13 0.28
14 0.28
15 0.66
16 0.28
17 0.66
18 0.06
19 0.06
2 -0.56
3 -0.43
4 -0.56
5 -0.43
6 -0.57
7 -0.57
8 0.28
9 0.28

> <PUBCHEM_EFFECTIVE_ROTOR_COUNT>
11

> <PUBCHEM_PHARMACOPHORE_FEATURES>
5
1 1 acceptor
1 2 acceptor
1 4 acceptor
1 6 acceptor
1 7 acceptor

> <PUBCHEM_HEAVY_ATOM_COUNT>
19

> <PUBCHEM_ATOM_DEF_STEREO_COUNT>
3

> <PUBCHEM_ATOM_UDEF_STEREO_COUNT>
0

> <PUBCHEM_BOND_DEF_STEREO_COUNT>
0

> <PUBCHEM_BOND_UDEF_STEREO_COUNT>
0

> <PUBCHEM_ISOTOPIC_ATOM_COUNT>
0

> <PUBCHEM_COMPONENT_COUNT>
1

> <PUBCHEM_CACTVS_TAUTO_COUNT>
1

> <PUBCHEM_CONFORMER_ID>
00EE293100000001

> <PUBCHEM_MMFF94_ENERGY>
49.7283

> <PUBCHEM_FEATURE_SELFOVERLAP>
25.379

> <PUBCHEM_SHAPE_FINGERPRINT>
108231 29 18263641947523220515
12186901 62 17988644060398924124
12403814 3 17632569474527507548
13675066 3 12679464200786656174
14713325 29 17702959015153343504
14787075 74 18044093681602019275
16945 1 18343574148896370722
200 152 18261387879581869198
20344682 1 17489588986983860791
20600515 1 17988094408075558287
22094290 60 18131067117148498032
23352939 185 17488750111041095488
23402539 116 18273493494388281863
23419403 2 16315786906183296922
23557571 272 18131078090985521173
23558518 356 18263938635005301898
23559900 14 18187081810789031216
3286 77 18335693949798493790
81228 2 18058182635302469857

> <PUBCHEM_SHAPE_MULTIPOLES>
349.93
7.59
2.73
1.94
6.65
3.32
-0.23
-1.65
-2.04
-2.63
1.77
0
-0.6
-1.07

> <PUBCHEM_SHAPE_SELFOVERLAP>
669.618

> <PUBCHEM_SHAPE_VOLUME>
214

> <PUBCHEM_COORDINATE_TYPE>
2
5
10

$$$$
