185904
  -OEChem-09292023593D

 56 58  0     1  0  0  0  0  0999 V2000
   -3.9387    2.6788    0.5900 O   0  0  0  0  0  0  0  0  0  0  0  0
   -0.8781    0.8727    1.9220 O   0  0  0  0  0  0  0  0  0  0  0  0
    0.9345   -2.4646   -1.4571 O   0  0  0  0  0  0  0  0  0  0  0  0
   -1.3663    1.4161   -0.2825 N   0  0  0  0  0  0  0  0  0  0  0  0
    0.6638   -1.1184    0.4119 N   0  0  0  0  0  0  0  0  0  0  0  0
   -1.6270    2.8231   -0.0796 C   0  0  1  0  0  0  0  0  0  0  0  0
   -0.7427   -0.8600    0.2325 C   0  0  1  0  0  0  0  0  0  0  0  0
   -0.6611    3.6830   -0.9099 C   0  0  0  0  0  0  0  0  0  0  0  0
   -1.6174   -1.8726    0.9807 C   0  0  0  0  0  0  0  0  0  0  0  0
   -1.0109    0.5512    0.7431 C   0  0  0  0  0  0  0  0  0  0  0  0
   -3.0783    3.1378   -0.4467 C   0  0  0  0  0  0  0  0  0  0  0  0
    0.7918    3.4004   -0.6087 C   0  0  0  0  0  0  0  0  0  0  0  0
   -3.0222   -1.9466    0.4341 C   0  0  0  0  0  0  0  0  0  0  0  0
    1.4487    4.1167    0.3921 C   0  0  0  0  0  0  0  0  0  0  0  0
    1.4766    2.4230   -1.3307 C   0  0  0  0  0  0  0  0  0  0  0  0
    1.3947   -1.9112   -0.4619 C   0  0  0  0  0  0  0  0  0  0  0  0
   -4.0161   -1.1145    0.9500 C   0  0  0  0  0  0  0  0  0  0  0  0
   -3.3269   -2.8464   -0.5873 C   0  0  0  0  0  0  0  0  0  0  0  0
    2.8286   -2.1019   -0.1232 C   0  0  0  0  0  0  0  0  0  0  0  0
    2.7903    3.8556    0.6705 C   0  0  0  0  0  0  0  0  0  0  0  0
    2.8183    2.1619   -1.0521 C   0  0  0  0  0  0  0  0  0  0  0  0
   -5.3144   -1.1825    0.4447 C   0  0  0  0  0  0  0  0  0  0  0  0
   -4.6253   -2.9144   -1.0925 C   0  0  0  0  0  0  0  0  0  0  0  0
    3.4750    2.8783   -0.0515 C   0  0  0  0  0  0  0  0  0  0  0  0
   -5.6191   -2.0823   -0.5764 C   0  0  0  0  0  0  0  0  0  0  0  0
    3.4975   -3.2518   -0.5430 C   0  0  0  0  0  0  0  0  0  0  0  0
    3.5065   -1.1308    0.6139 C   0  0  0  0  0  0  0  0  0  0  0  0
    4.8438   -3.4309   -0.2253 C   0  0  0  0  0  0  0  0  0  0  0  0
    4.8529   -1.3098    0.9313 C   0  0  0  0  0  0  0  0  0  0  0  0
    5.5215   -2.4599    0.5117 C   0  0  0  0  0  0  0  0  0  0  0  0
   -1.4765    3.0511    0.9832 H   0  0  0  0  0  0  0  0  0  0  0  0
   -0.9542   -0.9208   -0.8421 H   0  0  0  0  0  0  0  0  0  0  0  0
   -0.8638    4.7480   -0.7365 H   0  0  0  0  0  0  0  0  0  0  0  0
   -0.8377    3.5197   -1.9820 H   0  0  0  0  0  0  0  0  0  0  0  0
   -1.6520   -1.6532    2.0562 H   0  0  0  0  0  0  0  0  0  0  0  0
   -1.1705   -2.8740    0.9121 H   0  0  0  0  0  0  0  0  0  0  0  0
   -1.4498    1.0597   -1.2300 H   0  0  0  0  0  0  0  0  0  0  0  0
   -3.3733    2.6601   -1.3873 H   0  0  0  0  0  0  0  0  0  0  0  0
   -3.2299    4.2185   -0.5376 H   0  0  0  0  0  0  0  0  0  0  0  0
    1.0927   -0.7606    1.2590 H   0  0  0  0  0  0  0  0  0  0  0  0
    0.9249    4.8786    0.9631 H   0  0  0  0  0  0  0  0  0  0  0  0
    0.9785    1.8582   -2.1143 H   0  0  0  0  0  0  0  0  0  0  0  0
   -3.7926   -0.4096    1.7463 H   0  0  0  0  0  0  0  0  0  0  0  0
   -2.5608   -3.4977   -0.9994 H   0  0  0  0  0  0  0  0  0  0  0  0
   -4.8484    2.8923    0.3210 H   0  0  0  0  0  0  0  0  0  0  0  0
    3.3015    4.4123    1.4504 H   0  0  0  0  0  0  0  0  0  0  0  0
    3.3514    1.4012   -1.6148 H   0  0  0  0  0  0  0  0  0  0  0  0
   -6.0878   -0.5342    0.8461 H   0  0  0  0  0  0  0  0  0  0  0  0
   -4.8626   -3.6144   -1.8883 H   0  0  0  0  0  0  0  0  0  0  0  0
    4.5192    2.6737    0.1660 H   0  0  0  0  0  0  0  0  0  0  0  0
   -6.6299   -2.1350   -0.9702 H   0  0  0  0  0  0  0  0  0  0  0  0
    2.9859   -4.0218   -1.1145 H   0  0  0  0  0  0  0  0  0  0  0  0
    3.0308   -0.2118    0.9414 H   0  0  0  0  0  0  0  0  0  0  0  0
    5.3644   -4.3265   -0.5513 H   0  0  0  0  0  0  0  0  0  0  0  0
    5.3824   -0.5513    1.5004 H   0  0  0  0  0  0  0  0  0  0  0  0
    6.5701   -2.5987    0.7579 H   0  0  0  0  0  0  0  0  0  0  0  0
  1 11  1  0  0  0  0
  1 45  1  0  0  0  0
  2 10  2  0  0  0  0
  3 16  2  0  0  0  0
  4  6  1  0  0  0  0
  4 10  1  0  0  0  0
  4 37  1  0  0  0  0
  5  7  1  0  0  0  0
  5 16  1  0  0  0  0
  5 40  1  0  0  0  0
  6  8  1  0  0  0  0
  6 11  1  0  0  0  0
  6 31  1  0  0  0  0
  7  9  1  0  0  0  0
  7 10  1  0  0  0  0
  7 32  1  0  0  0  0
  8 12  1  0  0  0  0
  8 33  1  0  0  0  0
  8 34  1  0  0  0  0
  9 13  1  0  0  0  0
  9 35  1  0  0  0  0
  9 36  1  0  0  0  0
 11 38  1  0  0  0  0
 11 39  1  0  0  0  0
 12 14  2  0  0  0  0
 12 15  1  0  0  0  0
 13 17  2  0  0  0  0
 13 18  1  0  0  0  0
 14 20  1  0  0  0  0
 14 41  1  0  0  0  0
 15 21  2  0  0  0  0
 15 42  1  0  0  0  0
 16 19  1  0  0  0  0
 17 22  1  0  0  0  0
 17 43  1  0  0  0  0
 18 23  2  0  0  0  0
 18 44  1  0  0  0  0
 19 26  2  0  0  0  0
 19 27  1  0  0  0  0
 20 24  2  0  0  0  0
 20 46  1  0  0  0  0
 21 24  1  0  0  0  0
 21 47  1  0  0  0  0
 22 25  2  0  0  0  0
 22 48  1  0  0  0  0
 23 25  1  0  0  0  0
 23 49  1  0  0  0  0
 24 50  1  0  0  0  0
 25 51  1  0  0  0  0
 26 28  1  0  0  0  0
 26 52  1  0  0  0  0
 27 29  2  0  0  0  0
 27 53  1  0  0  0  0
 28 30  2  0  0  0  0
 28 54  1  0  0  0  0
 29 30  1  0  0  0  0
 29 55  1  0  0  0  0
 30 56  1  0  0  0  0
M  END
> <PUBCHEM_COMPOUND_CID>
185904

> <PUBCHEM_CONFORMER_RMSD>
1

> <PUBCHEM_CONFORMER_DIVERSEORDER>
1
150
120
139
13
41
183
14
133
97
130
90
2
126
102
96
145
171
142
35
45
117
182
116
21
179
138
37
69
156
101
78
131
148
118
100
151
50
67
160
184
53
187
175
132
164
185
114
36
60
64
159
134
180
91
17
5
170
158
32
167
27
165
72
44
85
61
12
146
107
46
137
84
124
39
111
86
98
128
143
108
121
3
20
70
34
10
161
9
104
68
23
141
4
106
74
163
47
15
176
125
40
177
166
135
42
155
157
59
16
162
76
88
115
103
144
109
73
26
95
22
81
71
8
140
49
75
48
87
147
54
65
79
82
168
186
63
18
38
123
52
172
149
89
6
136
173
24
30
62
57
77
119
153
29
113
152
93
127
105
99
33
112
28
83
110
31
129
25
174
94
19
169
56
178
181
122
58
51
7
66
80
11
43
55
92
154

> <PUBCHEM_MMFF94_PARTIAL_CHARGES>
48
1 -0.68
10 0.57
11 0.28
12 -0.14
13 -0.14
14 -0.15
15 -0.15
16 0.54
17 -0.15
18 -0.15
19 0.09
2 -0.57
20 -0.15
21 -0.15
22 -0.15
23 -0.15
24 -0.15
25 -0.15
26 -0.15
27 -0.15
28 -0.15
29 -0.15
3 -0.57
30 -0.15
37 0.37
4 -0.73
40 0.37
41 0.15
42 0.15
43 0.15
44 0.15
45 0.4
46 0.15
47 0.15
48 0.15
49 0.15
5 -0.73
50 0.15
51 0.15
52 0.15
53 0.15
54 0.15
55 0.15
56 0.15
6 0.3
7 0.36
8 0.14
9 0.14

> <PUBCHEM_EFFECTIVE_ROTOR_COUNT>
11

> <PUBCHEM_PHARMACOPHORE_FEATURES>
9
1 1 acceptor
1 1 donor
1 2 acceptor
1 3 acceptor
1 4 donor
1 5 donor
6 12 14 15 20 21 24 rings
6 13 17 18 22 23 25 rings
6 19 26 27 28 29 30 rings

> <PUBCHEM_HEAVY_ATOM_COUNT>
30

> <PUBCHEM_ATOM_DEF_STEREO_COUNT>
2

> <PUBCHEM_ATOM_UDEF_STEREO_COUNT>
0

> <PUBCHEM_BOND_DEF_STEREO_COUNT>
0

> <PUBCHEM_BOND_UDEF_STEREO_COUNT>
0

> <PUBCHEM_ISOTOPIC_ATOM_COUNT>
0

> <PUBCHEM_COMPONENT_COUNT>
1

> <PUBCHEM_CACTVS_TAUTO_COUNT>
4

> <PUBCHEM_CONFORMER_ID>
0002D63000000001

> <PUBCHEM_MMFF94_ENERGY>
76.3958

> <PUBCHEM_FEATURE_SELFOVERLAP>
45.673

> <PUBCHEM_SHAPE_FINGERPRINT>
10675989 125 17907022029771190817
10864689 126 17617096902062369349
1100329 8 18265336097357829217
12156800 1 15938344059023705212
12422481 6 18413673500315192081
12608794 3 18265638532128191427
13140716 1 18337954493886532024
13402501 40 17834108650925395184
1361 2 17978789339405337746
14117953 113 18270686368140965215
15439362 3 18192989550983839835
15815584 197 17905346360727468263
15876981 60 18117572738712928270
20101258 96 18337115557549869755
20775438 99 17906407218118793781
23559900 14 18337389460779358394
3298306 158 17758397761341021935
3380486 145 18122080718710477074
4015057 19 18263078976174831003
4066623 53 18261936523821940405
463206 1 18266737978740944844
5171179 24 18412259536514047577
59755656 215 18191026896811152836
6700243 42 17628105333440530318

> <PUBCHEM_SHAPE_MULTIPOLES>
589.82
10.83
6.79
1.17
4.02
4.7
-0.03
-10.9
-0.44
-4.03
1.16
0.13
0.02
-0.59

> <PUBCHEM_SHAPE_SELFOVERLAP>
1250.991

> <PUBCHEM_SHAPE_VOLUME>
326.4

> <PUBCHEM_COORDINATE_TYPE>
2
5
10

$$$$
