129821120
  -OEChem-09302000253D

 50 49  0     1  0  0  0  0  0999 V2000
   -0.2255    1.4112    1.5146 O   0  0  0  0  0  0  0  0  0  0  0  0
   -0.3674   -1.6283   -0.5007 O   0  0  0  0  0  0  0  0  0  0  0  0
    1.7138   -1.6547    1.0068 O   0  0  0  0  0  0  0  0  0  0  0  0
   -2.3436    1.4102    0.0316 O   0  0  0  0  0  0  0  0  0  0  0  0
   -4.3267   -0.7752    0.3885 O   0  0  0  0  0  0  0  0  0  0  0  0
    3.7294    0.1703    0.4322 O   0  0  0  0  0  0  0  0  0  0  0  0
   -0.2944   -1.0922   -2.7466 O   0  0  0  0  0  0  0  0  0  0  0  0
   -2.1250    1.8865   -2.2182 O   0  0  0  0  0  0  0  0  0  0  0  0
    4.3261    1.5741   -1.3027 O   0  0  0  0  0  0  0  0  0  0  0  0
    0.0090    0.0397    1.1971 C   0  0  1  0  0  0  0  0  0  0  0  0
   -0.6178   -0.2617   -0.1746 C   0  0  2  0  0  0  0  0  0  0  0  0
    1.5201   -0.2585    1.2670 C   0  0  2  0  0  0  0  0  0  0  0  0
   -2.1327    0.0185   -0.2383 C   0  0  1  0  0  0  0  0  0  0  0  0
    2.3571    0.5068    0.2443 C   0  0  0  0  0  0  0  0  0  0  0  0
   -2.9568   -0.7639    0.7833 C   0  0  0  0  0  0  0  0  0  0  0  0
   -0.1315    1.6407    2.9118 C   0  0  0  0  0  0  0  0  0  0  0  0
   -0.2262   -1.9008   -1.8309 C   0  0  0  0  0  0  0  0  0  0  0  0
    1.4278   -2.4318    2.1565 C   0  0  0  0  0  0  0  0  0  0  0  0
   -2.3125    2.2274   -1.0582 C   0  0  0  0  0  0  0  0  0  0  0  0
    0.0304   -3.3650   -2.0218 C   0  0  0  0  0  0  0  0  0  0  0  0
   -5.1228   -1.5121    1.3040 C   0  0  0  0  0  0  0  0  0  0  0  0
    4.6095    0.7807   -0.4155 C   0  0  0  0  0  0  0  0  0  0  0  0
   -2.5460    3.6436   -0.6269 C   0  0  0  0  0  0  0  0  0  0  0  0
    6.0057    0.3345   -0.1032 C   0  0  0  0  0  0  0  0  0  0  0  0
   -0.5090   -0.5878    1.9305 H   0  0  0  0  0  0  0  0  0  0  0  0
   -0.1355    0.4073   -0.8992 H   0  0  0  0  0  0  0  0  0  0  0  0
    1.9324   -0.0256    2.2556 H   0  0  0  0  0  0  0  0  0  0  0  0
   -2.5185   -0.2441   -1.2323 H   0  0  0  0  0  0  0  0  0  0  0  0
    2.2252    1.5870    0.3712 H   0  0  0  0  0  0  0  0  0  0  0  0
    2.0826    0.2182   -0.7761 H   0  0  0  0  0  0  0  0  0  0  0  0
   -2.8824   -0.3047    1.7762 H   0  0  0  0  0  0  0  0  0  0  0  0
   -2.6083   -1.8013    0.8383 H   0  0  0  0  0  0  0  0  0  0  0  0
   -0.4460    2.6711    3.1021 H   1  0  0  0  0  0  0  0  0  0  0  0
    0.8955    1.5393    3.2699 H   0  0  0  0  0  0  0  0  0  0  0  0
   -0.7999    0.9775    3.4700 H   0  0  0  0  0  0  0  0  0  0  0  0
    1.7203   -3.4640    1.9416 H   1  0  0  0  0  0  0  0  0  0  0  0
    2.0068   -2.0944    3.0219 H   0  0  0  0  0  0  0  0  0  0  0  0
    0.3607   -2.4389    2.3903 H   0  0  0  0  0  0  0  0  0  0  0  0
    0.9533   -3.6487   -1.5097 H   0  0  0  0  0  0  0  0  0  0  0  0
    0.1440   -3.5776   -3.0887 H   0  0  0  0  0  0  0  0  0  0  0  0
   -0.8154   -3.9419   -1.6394 H   0  0  0  0  0  0  0  0  0  0  0  0
   -6.1594   -1.4861    0.9573 H   1  0  0  0  0  0  0  0  0  0  0  0
   -5.0780   -1.0632    2.3011 H   0  0  0  0  0  0  0  0  0  0  0  0
   -4.7959   -2.5557    1.3454 H   0  0  0  0  0  0  0  0  0  0  0  0
   -3.5290    3.7309   -0.1574 H   0  0  0  0  0  0  0  0  0  0  0  0
   -2.5183    4.2986   -1.5024 H   0  0  0  0  0  0  0  0  0  0  0  0
   -1.7592    3.9544    0.0652 H   0  0  0  0  0  0  0  0  0  0  0  0
    6.2637    0.6146    0.9211 H   0  0  0  0  0  0  0  0  0  0  0  0
    6.7049    0.8262   -0.7856 H   0  0  0  0  0  0  0  0  0  0  0  0
    6.0883   -0.7467   -0.2396 H   0  0  0  0  0  0  0  0  0  0  0  0
  1 10  1  0  0  0  0
  1 16  1  0  0  0  0
  2 11  1  0  0  0  0
  2 17  1  0  0  0  0
  3 12  1  0  0  0  0
  3 18  1  0  0  0  0
  4 13  1  0  0  0  0
  4 19  1  0  0  0  0
  5 15  1  0  0  0  0
  5 21  1  0  0  0  0
  6 14  1  0  0  0  0
  6 22  1  0  0  0  0
  7 17  2  0  0  0  0
  8 19  2  0  0  0  0
  9 22  2  0  0  0  0
 10 11  1  0  0  0  0
 10 12  1  0  0  0  0
 10 25  1  0  0  0  0
 11 13  1  0  0  0  0
 11 26  1  0  0  0  0
 12 14  1  0  0  0  0
 12 27  1  0  0  0  0
 13 15  1  0  0  0  0
 13 28  1  0  0  0  0
 14 29  1  0  0  0  0
 14 30  1  0  0  0  0
 15 31  1  0  0  0  0
 15 32  1  0  0  0  0
 16 33  1  0  0  0  0
 16 34  1  0  0  0  0
 16 35  1  0  0  0  0
 17 20  1  0  0  0  0
 18 36  1  0  0  0  0
 18 37  1  0  0  0  0
 18 38  1  0  0  0  0
 19 23  1  0  0  0  0
 20 39  1  0  0  0  0
 20 40  1  0  0  0  0
 20 41  1  0  0  0  0
 21 42  1  0  0  0  0
 21 43  1  0  0  0  0
 21 44  1  0  0  0  0
 22 24  1  0  0  0  0
 23 45  1  0  0  0  0
 23 46  1  0  0  0  0
 23 47  1  0  0  0  0
 24 48  1  0  0  0  0
 24 49  1  0  0  0  0
 24 50  1  0  0  0  0
M  ISO  3  33   2  36   2  42   2
M  END
> <PUBCHEM_COMPOUND_CID>
129821120

> <PUBCHEM_CONFORMER_RMSD>
1.2

> <PUBCHEM_CONFORMER_DIVERSEORDER>
1
5
17
38
21
33
22
39
37
41
36
28
26
40
11
12
24
31
7
10
32
25
18
6
27
16
13
23
9
14
34
29
30
2
19
4
8
35
3
15
20

> <PUBCHEM_MMFF94_PARTIAL_CHARGES>
24
1 -0.56
10 0.28
11 0.28
12 0.28
13 0.28
14 0.28
15 0.28
16 0.28
17 0.66
18 0.28
19 0.66
2 -0.43
20 0.06
21 0.28
22 0.66
23 0.06
24 0.06
3 -0.56
4 -0.43
5 -0.56
6 -0.43
7 -0.57
8 -0.57
9 -0.57

> <PUBCHEM_EFFECTIVE_ROTOR_COUNT>
14

> <PUBCHEM_PHARMACOPHORE_FEATURES>
6
1 1 acceptor
1 3 acceptor
1 5 acceptor
1 7 acceptor
1 8 acceptor
1 9 acceptor

> <PUBCHEM_HEAVY_ATOM_COUNT>
24

> <PUBCHEM_ATOM_DEF_STEREO_COUNT>
4

> <PUBCHEM_ATOM_UDEF_STEREO_COUNT>
0

> <PUBCHEM_BOND_DEF_STEREO_COUNT>
0

> <PUBCHEM_BOND_UDEF_STEREO_COUNT>
0

> <PUBCHEM_ISOTOPIC_ATOM_COUNT>
3

> <PUBCHEM_COMPONENT_COUNT>
1

> <PUBCHEM_CACTVS_TAUTO_COUNT>
1

> <PUBCHEM_CONFORMER_ID>
07BCE9C000000001

> <PUBCHEM_MMFF94_ENERGY>
59.2207

> <PUBCHEM_FEATURE_SELFOVERLAP>
30.452

> <PUBCHEM_SHAPE_FINGERPRINT>
10863032 1 17970057855586660985
11578080 2 17912393960285097625
12173636 292 17968938725202371954
12403814 3 18339080496444886845
12930653 34 17967534528009308995
13149001 5 17344605231824484944
14251751 93 18409726266440358902
14713325 29 18338521833048759593
14787075 74 17386853987760001803
15163728 17 18194700167485815468
16945 1 18262786458572769699
20600515 1 18046943564681746531
22907989 373 18338776967207036405
23352939 185 18265346164534532577
23419403 2 17912381835423402215
23557571 272 18187372012965265981
59554788 170 18268428112865047457
81228 2 17338963727930759927

> <PUBCHEM_SHAPE_MULTIPOLES>
441.08
8.29
3.29
2.47
7.45
0.2
0.05
1.82
0.24
-2.17
-1.37
-0.45
-0.5
0.56

> <PUBCHEM_SHAPE_SELFOVERLAP>
855.574

> <PUBCHEM_SHAPE_VOLUME>
266.9

> <PUBCHEM_COORDINATE_TYPE>
2
5
10

$$$$
