129722946
  -OEChem-09302000253D

 48 47  0     1  0  0  0  0  0999 V2000
   -0.2274    0.4934    1.7041 O   0  0  0  0  0  0  0  0  0  0  0  0
   -0.3702   -1.3155   -1.4626 O   0  0  0  0  0  0  0  0  0  0  0  0
    1.7079   -2.0218   -0.1255 O   0  0  0  0  0  0  0  0  0  0  0  0
   -2.3425    1.1642    0.3768 O   0  0  0  0  0  0  0  0  0  0  0  0
   -4.3299   -0.9437   -0.2890 O   0  0  0  0  0  0  0  0  0  0  0  0
    3.7276   -0.1380    0.1837 O   0  0  0  0  0  0  0  0  0  0  0  0
   -2.1185    2.6004   -1.4188 O   0  0  0  0  0  0  0  0  0  0  0  0
    4.3301    1.8944   -0.7344 O   0  0  0  0  0  0  0  0  0  0  0  0
    0.0054   -0.5897    0.8043 C   0  0  1  0  0  0  0  0  0  0  0  0
   -0.6190   -0.2407   -0.5573 C   0  0  2  0  0  0  0  0  0  0  0  0
    1.5159   -0.8911    0.7343 C   0  0  2  0  0  0  0  0  0  0  0  0
   -2.1335    0.0418   -0.4898 C   0  0  1  0  0  0  0  0  0  0  0  0
    2.3563    0.2502    0.1657 C   0  0  0  0  0  0  0  0  0  0  0  0
   -2.9608   -1.1143    0.0703 C   0  0  0  0  0  0  0  0  0  0  0  0
   -0.1359    0.0701    3.0554 C   0  0  0  0  0  0  0  0  0  0  0  0
   -0.4631   -0.8855   -2.8118 C   0  0  0  0  0  0  0  0  0  0  0  0
    1.4182   -3.2321    0.5518 C   0  0  0  0  0  0  0  0  0  0  0  0
   -2.3077    2.3839   -0.2294 C   0  0  0  0  0  0  0  0  0  0  0  0
   -5.1291   -2.0116    0.1967 C   0  0  0  0  0  0  0  0  0  0  0  0
    4.6105    0.7861   -0.2982 C   0  0  0  0  0  0  0  0  0  0  0  0
   -2.5398    3.4557    0.7921 C   0  0  0  0  0  0  0  0  0  0  0  0
    6.0053    0.2438   -0.2184 C   0  0  0  0  0  0  0  0  0  0  0  0
   -0.5151   -1.4787    1.1768 H   0  0  0  0  0  0  0  0  0  0  0  0
   -0.1313    0.6757   -0.9145 H   0  0  0  0  0  0  0  0  0  0  0  0
    1.9265   -1.1284    1.7226 H   0  0  0  0  0  0  0  0  0  0  0  0
   -2.5341    0.2669   -1.4846 H   0  0  0  0  0  0  0  0  0  0  0  0
    2.2259    1.1586    0.7643 H   0  0  0  0  0  0  0  0  0  0  0  0
    2.0833    0.4515   -0.8759 H   0  0  0  0  0  0  0  0  0  0  0  0
   -2.8878   -1.1507    1.1637 H   0  0  0  0  0  0  0  0  0  0  0  0
   -2.6145   -2.0665   -0.3469 H   0  0  0  0  0  0  0  0  0  0  0  0
   -0.4489    0.9058    3.6882 H   1  0  0  0  0  0  0  0  0  0  0  0
    0.8903   -0.1839    3.3308 H   0  0  0  0  0  0  0  0  0  0  0  0
   -0.8065   -0.7716    3.2553 H   0  0  0  0  0  0  0  0  0  0  0  0
   -0.1250   -1.7087   -3.4481 H   1  0  0  0  0  0  0  0  0  0  0  0
    0.1869   -0.0256   -3.0016 H   0  0  0  0  0  0  0  0  0  0  0  0
   -1.4937   -0.6562   -3.0924 H   0  0  0  0  0  0  0  0  0  0  0  0
    1.7099   -4.0583   -0.1034 H   1  0  0  0  0  0  0  0  0  0  0  0
    0.3507   -3.3412    0.7562 H   0  0  0  0  0  0  0  0  0  0  0  0
    1.9958   -3.3207    1.4774 H   0  0  0  0  0  0  0  0  0  0  0  0
   -6.1650   -1.8301   -0.1024 H   1  0  0  0  0  0  0  0  0  0  0  0
   -5.0856   -2.0589    1.2892 H   0  0  0  0  0  0  0  0  0  0  0  0
   -4.8041   -2.9632   -0.2351 H   0  0  0  0  0  0  0  0  0  0  0  0
   -3.5239    3.3255    1.2491 H   0  0  0  0  0  0  0  0  0  0  0  0
   -2.5084    4.4343    0.3046 H   0  0  0  0  0  0  0  0  0  0  0  0
   -1.7544    3.4199    1.5514 H   0  0  0  0  0  0  0  0  0  0  0  0
    6.2616    0.0325    0.8228 H   0  0  0  0  0  0  0  0  0  0  0  0
    6.7068    0.9883   -0.6057 H   0  0  0  0  0  0  0  0  0  0  0  0
    6.0865   -0.6606   -0.8265 H   0  0  0  0  0  0  0  0  0  0  0  0
  1  9  1  0  0  0  0
  1 15  1  0  0  0  0
  2 10  1  0  0  0  0
  2 16  1  0  0  0  0
  3 11  1  0  0  0  0
  3 17  1  0  0  0  0
  4 12  1  0  0  0  0
  4 18  1  0  0  0  0
  5 14  1  0  0  0  0
  5 19  1  0  0  0  0
  6 13  1  0  0  0  0
  6 20  1  0  0  0  0
  7 18  2  0  0  0  0
  8 20  2  0  0  0  0
  9 10  1  0  0  0  0
  9 11  1  0  0  0  0
  9 23  1  0  0  0  0
 10 12  1  0  0  0  0
 10 24  1  0  0  0  0
 11 13  1  0  0  0  0
 11 25  1  0  0  0  0
 12 14  1  0  0  0  0
 12 26  1  0  0  0  0
 13 27  1  0  0  0  0
 13 28  1  0  0  0  0
 14 29  1  0  0  0  0
 14 30  1  0  0  0  0
 15 31  1  0  0  0  0
 15 32  1  0  0  0  0
 15 33  1  0  0  0  0
 16 34  1  0  0  0  0
 16 35  1  0  0  0  0
 16 36  1  0  0  0  0
 17 37  1  0  0  0  0
 17 38  1  0  0  0  0
 17 39  1  0  0  0  0
 18 21  1  0  0  0  0
 19 40  1  0  0  0  0
 19 41  1  0  0  0  0
 19 42  1  0  0  0  0
 20 22  1  0  0  0  0
 21 43  1  0  0  0  0
 21 44  1  0  0  0  0
 21 45  1  0  0  0  0
 22 46  1  0  0  0  0
 22 47  1  0  0  0  0
 22 48  1  0  0  0  0
M  ISO  4  31   2  34   2  37   2  40   2
M  END
> <PUBCHEM_COMPOUND_CID>
129722946

> <PUBCHEM_CONFORMER_RMSD>
1

> <PUBCHEM_CONFORMER_DIVERSEORDER>
1
39
12
49
34
36
16
38
48
45
4
56
22
13
60
28
61
33
54
42
8
47
57
27
52
58
51
19
24
11
40
43
5
53
31
26
35
32
9
59
6
46
3
37
30
41
14
10
55
2
21
50
29
17
44
20
18
23
7
15
25

> <PUBCHEM_MMFF94_PARTIAL_CHARGES>
22
1 -0.56
10 0.28
11 0.28
12 0.28
13 0.28
14 0.28
15 0.28
16 0.28
17 0.28
18 0.66
19 0.28
2 -0.56
20 0.66
21 0.06
22 0.06
3 -0.56
4 -0.43
5 -0.56
6 -0.43
7 -0.57
8 -0.57
9 0.28

> <PUBCHEM_EFFECTIVE_ROTOR_COUNT>
13

> <PUBCHEM_PHARMACOPHORE_FEATURES>
6
1 1 acceptor
1 2 acceptor
1 3 acceptor
1 5 acceptor
1 7 acceptor
1 8 acceptor

> <PUBCHEM_HEAVY_ATOM_COUNT>
22

> <PUBCHEM_ATOM_DEF_STEREO_COUNT>
4

> <PUBCHEM_ATOM_UDEF_STEREO_COUNT>
0

> <PUBCHEM_BOND_DEF_STEREO_COUNT>
0

> <PUBCHEM_BOND_UDEF_STEREO_COUNT>
0

> <PUBCHEM_ISOTOPIC_ATOM_COUNT>
4

> <PUBCHEM_COMPONENT_COUNT>
1

> <PUBCHEM_CACTVS_TAUTO_COUNT>
1

> <PUBCHEM_CONFORMER_ID>
07BB6A4200000001

> <PUBCHEM_MMFF94_ENERGY>
63.085

> <PUBCHEM_FEATURE_SELFOVERLAP>
30.466

> <PUBCHEM_SHAPE_FINGERPRINT>
11578080 2 17200549276138519217
12173636 292 18337105787084600038
12403814 3 18201438120589755853
12592029 89 18335137596899593410
12788726 201 18335412474595105899
13533116 47 11891867529453003260
14251751 93 18272086098040272924
14713325 29 18200881677506987393
14787075 74 17969220217053256579
16945 1 18199731652847788835
19141452 34 10663825169600453576
20286276 3 18194689159384538331
20600515 1 17984170272609300219
22907989 373 18129363944042281597
23352939 185 18129389361331737257
23402539 116 18334573585767132559
23419403 2 12575819368575604897
23557571 272 18411705391649537605
23559900 14 18122607376043112419
53777708 50 18264485079309766595
59554788 170 18059006327887582529

> <PUBCHEM_SHAPE_MULTIPOLES>
405.8
8.96
3.09
1.89
8.2
1.22
0.26
0.73
-1.17
-2.47
0.06
-0.4
-0.1
-0.48

> <PUBCHEM_SHAPE_SELFOVERLAP>
779.859

> <PUBCHEM_SHAPE_VOLUME>
248.3

> <PUBCHEM_COORDINATE_TYPE>
2
5
10

$$$$
