5364412
  -OEChem-09302000593D

 56 55  0     1  0  0  0  0  0999 V2000
   -2.8032    3.4002   -1.5601 O   0  0  0  0  0  0  0  0  0  0  0  0
   -2.1727   -3.7660   -0.0479 C   0  0  0  0  0  0  0  0  0  0  0  0
   -0.7742   -3.5630    0.5462 C   0  0  0  0  0  0  0  0  0  0  0  0
   -2.8120   -2.5322   -0.6929 C   0  0  0  0  0  0  0  0  0  0  0  0
    0.2502   -3.0487   -0.4685 C   0  0  0  0  0  0  0  0  0  0  0  0
   -3.0458   -1.3824    0.2931 C   0  0  0  0  0  0  0  0  0  0  0  0
    1.6480   -2.8484    0.1274 C   0  0  0  0  0  0  0  0  0  0  0  0
   -3.7637   -0.1885   -0.3459 C   0  0  0  0  0  0  0  0  0  0  0  0
    2.6560   -2.2637   -0.8649 C   0  0  0  0  0  0  0  0  0  0  0  0
   -4.0533    0.9056    0.6404 C   0  0  0  0  0  0  0  0  0  0  0  0
    3.9833   -2.0234   -0.2051 C   0  0  0  0  0  0  0  0  0  0  0  0
   -1.8667    2.0812    0.2347 C   0  0  1  0  0  0  0  0  0  0  0  0
   -3.2119    1.9172    0.9015 C   0  0  0  0  0  0  0  0  0  0  0  0
    3.3897    0.2984    0.5342 C   0  0  0  0  0  0  0  0  0  0  0  0
    4.3102   -0.8818    0.4183 C   0  0  0  0  0  0  0  0  0  0  0  0
    3.9947    1.5855   -0.0350 C   0  0  0  0  0  0  0  0  0  0  0  0
    3.0874    2.8053    0.1445 C   0  0  0  0  0  0  0  0  0  0  0  0
   -1.8107    3.4020   -0.5400 C   0  0  0  0  0  0  0  0  0  0  0  0
   -0.7599    2.0306    1.2875 C   0  0  0  0  0  0  0  0  0  0  0  0
    3.7548    4.0723   -0.3676 C   0  0  0  0  0  0  0  0  0  0  0  0
   -2.8354   -4.1413    0.7417 H   0  0  0  0  0  0  0  0  0  0  0  0
   -2.1183   -4.5583   -0.8053 H   0  0  0  0  0  0  0  0  0  0  0  0
   -0.4270   -4.5218    0.9507 H   0  0  0  0  0  0  0  0  0  0  0  0
   -0.8297   -2.8730    1.3961 H   0  0  0  0  0  0  0  0  0  0  0  0
   -3.7793   -2.8350   -1.1138 H   0  0  0  0  0  0  0  0  0  0  0  0
   -2.2098   -2.1841   -1.5391 H   0  0  0  0  0  0  0  0  0  0  0  0
    0.3126   -3.7478   -1.3112 H   0  0  0  0  0  0  0  0  0  0  0  0
   -0.0826   -2.0868   -0.8740 H   0  0  0  0  0  0  0  0  0  0  0  0
   -2.0840   -1.0456    0.6969 H   0  0  0  0  0  0  0  0  0  0  0  0
   -3.6351   -1.7509    1.1426 H   0  0  0  0  0  0  0  0  0  0  0  0
    2.0185   -3.8111    0.5028 H   0  0  0  0  0  0  0  0  0  0  0  0
    1.5625   -2.1860    0.9985 H   0  0  0  0  0  0  0  0  0  0  0  0
   -3.2167    0.1730   -1.2226 H   0  0  0  0  0  0  0  0  0  0  0  0
   -4.7287   -0.5288   -0.7448 H   0  0  0  0  0  0  0  0  0  0  0  0
    2.8093   -2.9765   -1.6852 H   0  0  0  0  0  0  0  0  0  0  0  0
    2.2626   -1.3612   -1.3435 H   0  0  0  0  0  0  0  0  0  0  0  0
   -4.9952    0.8554    1.1801 H   0  0  0  0  0  0  0  0  0  0  0  0
    4.7044   -2.8362   -0.2224 H   0  0  0  0  0  0  0  0  0  0  0  0
   -1.6652    1.2761   -0.4768 H   0  0  0  0  0  0  0  0  0  0  0  0
   -3.5056    2.6609    1.6386 H   0  0  0  0  0  0  0  0  0  0  0  0
    3.1943    0.4506    1.6039 H   0  0  0  0  0  0  0  0  0  0  0  0
    2.4088    0.1371    0.0803 H   0  0  0  0  0  0  0  0  0  0  0  0
    5.2886   -0.8031    0.8848 H   0  0  0  0  0  0  0  0  0  0  0  0
    4.9583    1.7795    0.4537 H   0  0  0  0  0  0  0  0  0  0  0  0
    4.2058    1.4460   -1.1030 H   0  0  0  0  0  0  0  0  0  0  0  0
    2.8345    2.9317    1.2032 H   0  0  0  0  0  0  0  0  0  0  0  0
    2.1514    2.6490   -0.4027 H   0  0  0  0  0  0  0  0  0  0  0  0
   -1.9903    4.2607    0.1168 H   0  0  0  0  0  0  0  0  0  0  0  0
   -0.8320    3.5276   -1.0155 H   0  0  0  0  0  0  0  0  0  0  0  0
   -0.8529    2.8482    2.0113 H   0  0  0  0  0  0  0  0  0  0  0  0
    0.2236    2.1094    0.8168 H   0  0  0  0  0  0  0  0  0  0  0  0
   -0.7865    1.0852    1.8410 H   0  0  0  0  0  0  0  0  0  0  0  0
    4.6809    4.2768    0.1791 H   0  0  0  0  0  0  0  0  0  0  0  0
    3.0876    4.9303   -0.2383 H   0  0  0  0  0  0  0  0  0  0  0  0
    3.9953    3.9863   -1.4321 H   0  0  0  0  0  0  0  0  0  0  0  0
   -2.7309    4.2491   -2.0290 H   0  0  0  0  0  0  0  0  0  0  0  0
  1 18  1  0  0  0  0
  1 56  1  0  0  0  0
  2  3  1  0  0  0  0
  2  4  1  0  0  0  0
  2 21  1  0  0  0  0
  2 22  1  0  0  0  0
  3  5  1  0  0  0  0
  3 23  1  0  0  0  0
  3 24  1  0  0  0  0
  4  6  1  0  0  0  0
  4 25  1  0  0  0  0
  4 26  1  0  0  0  0
  5  7  1  0  0  0  0
  5 27  1  0  0  0  0
  5 28  1  0  0  0  0
  6  8  1  0  0  0  0
  6 29  1  0  0  0  0
  6 30  1  0  0  0  0
  7  9  1  0  0  0  0
  7 31  1  0  0  0  0
  7 32  1  0  0  0  0
  8 10  1  0  0  0  0
  8 33  1  0  0  0  0
  8 34  1  0  0  0  0
  9 11  1  0  0  0  0
  9 35  1  0  0  0  0
  9 36  1  0  0  0  0
 10 13  2  0  0  0  0
 10 37  1  0  0  0  0
 11 15  2  0  0  0  0
 11 38  1  0  0  0  0
 12 13  1  0  0  0  0
 12 18  1  0  0  0  0
 12 19  1  0  0  0  0
 12 39  1  0  0  0  0
 13 40  1  0  0  0  0
 14 15  1  0  0  0  0
 14 16  1  0  0  0  0
 14 41  1  0  0  0  0
 14 42  1  0  0  0  0
 15 43  1  0  0  0  0
 16 17  1  0  0  0  0
 16 44  1  0  0  0  0
 16 45  1  0  0  0  0
 17 20  1  0  0  0  0
 17 46  1  0  0  0  0
 17 47  1  0  0  0  0
 18 48  1  0  0  0  0
 18 49  1  0  0  0  0
 19 50  1  0  0  0  0
 19 51  1  0  0  0  0
 19 52  1  0  0  0  0
 20 53  1  0  0  0  0
 20 54  1  0  0  0  0
 20 55  1  0  0  0  0
M  END
> <PUBCHEM_COMPOUND_CID>
5364412

> <PUBCHEM_CONFORMER_RMSD>
1.4

> <PUBCHEM_CONFORMER_DIVERSEORDER>
1
96
95
12
77
93
55
65
39
56
48
8
89
5
40
71
18
6
70
87
88
38
16
34
81
15
63
86
83
62
45
91
60
21
61
78
17
22
54
2
67
32
76
11
66
28
74
82
79
23
69
35
29
13
68
27
85
57
14
25
42
19
64
24
84
80
44
75
31
72
7
58
53
90
94
59
46
37
4
73
50
51
92
47
33
9
41
26
10
43
49
20
30
52
36
3

> <PUBCHEM_MMFF94_PARTIAL_CHARGES>
15
1 -0.68
10 -0.29
11 -0.29
12 0.14
13 -0.29
14 0.14
15 -0.29
18 0.28
37 0.15
38 0.15
40 0.15
43 0.15
56 0.4
8 0.14
9 0.14

> <PUBCHEM_EFFECTIVE_ROTOR_COUNT>
14

> <PUBCHEM_PHARMACOPHORE_FEATURES>
5
1 1 acceptor
1 1 donor
1 19 hydrophobe
1 20 hydrophobe
4 14 15 16 17 hydrophobe

> <PUBCHEM_HEAVY_ATOM_COUNT>
20

> <PUBCHEM_ATOM_DEF_STEREO_COUNT>
0

> <PUBCHEM_ATOM_UDEF_STEREO_COUNT>
1

> <PUBCHEM_BOND_DEF_STEREO_COUNT>
2

> <PUBCHEM_BOND_UDEF_STEREO_COUNT>
0

> <PUBCHEM_ISOTOPIC_ATOM_COUNT>
0

> <PUBCHEM_COMPONENT_COUNT>
1

> <PUBCHEM_CACTVS_TAUTO_COUNT>
1

> <PUBCHEM_CONFORMER_ID>
0051DABC00000001

> <PUBCHEM_MMFF94_ENERGY>
7.3604

> <PUBCHEM_FEATURE_SELFOVERLAP>
25.372

> <PUBCHEM_SHAPE_FINGERPRINT>
12038231 1 18411701010461129146
12978246 48 18338234860497416840
13122387 1 17259065091088353898
14251764 38 18339924921686644730
14428016 6 17324902778409376701
144659 178 15888556372922377245
14466204 15 18265889169219071866
14940714 1 9124006435343133536
19930381 70 17328864301323274277
20398071 114 18338511924416237067
20621476 13 17111843765668810527
21623110 236 18342182167834905035
21734292 116 18052257594367177442
325973 47 18412265077306656920
6433294 58 18269274723970112096

> <PUBCHEM_SHAPE_MULTIPOLES>
405.72
9.33
6.82
1
5.03
0.63
-0.06
3.12
0.01
0.01
-1.13
-0.42
0.46
0.01

> <PUBCHEM_SHAPE_SELFOVERLAP>
745.695

> <PUBCHEM_SHAPE_VOLUME>
256.7

> <PUBCHEM_COORDINATE_TYPE>
2
5
10

$$$$
