91691232
  -OEChem-09302000542D

 60 60  0     1  0  0  0  0  0999 V2000
   15.3660    4.1471    0.0000 O   0  0  0  0  0  0  0  0  0  0  0  0
   15.3660    2.4151    0.0000 O   0  0  0  0  0  0  0  0  0  0  0  0
   10.0000    1.0490    0.0000 C   0  0  2  0  0  0  0  0  0  0  0  0
   10.8660    1.5490    0.0000 C   0  0  2  0  0  0  0  0  0  0  0  0
   10.0000    2.0490    0.0000 C   0  0  0  0  0  0  0  0  0  0  0  0
    9.5000    0.1830    0.0000 C   0  0  0  0  0  0  0  0  0  0  0  0
   11.8660    1.5490    0.0000 C   0  0  0  0  0  0  0  0  0  0  0  0
    8.5000    0.1830    0.0000 C   0  0  0  0  0  0  0  0  0  0  0  0
   12.3660    2.4151    0.0000 C   0  0  0  0  0  0  0  0  0  0  0  0
    8.0000   -0.6830    0.0000 C   0  0  0  0  0  0  0  0  0  0  0  0
   13.3660    2.4151    0.0000 C   0  0  0  0  0  0  0  0  0  0  0  0
    7.0000   -0.6830    0.0000 C   0  0  0  0  0  0  0  0  0  0  0  0
   13.8660    3.2811    0.0000 C   0  0  0  0  0  0  0  0  0  0  0  0
    6.5000   -1.5490    0.0000 C   0  0  0  0  0  0  0  0  0  0  0  0
    5.5000   -1.5490    0.0000 C   0  0  0  0  0  0  0  0  0  0  0  0
    5.0000   -2.4151    0.0000 C   0  0  0  0  0  0  0  0  0  0  0  0
   14.8660    3.2811    0.0000 C   0  0  0  0  0  0  0  0  0  0  0  0
    4.0000   -2.4151    0.0000 C   0  0  0  0  0  0  0  0  0  0  0  0
    3.5000   -3.2811    0.0000 C   0  0  0  0  0  0  0  0  0  0  0  0
    2.5000   -3.2811    0.0000 C   0  0  0  0  0  0  0  0  0  0  0  0
    2.0000   -4.1471    0.0000 C   0  0  0  0  0  0  0  0  0  0  0  0
   16.3660    4.1471    0.0000 C   0  0  0  0  0  0  0  0  0  0  0  0
   10.4384    0.6106    0.0000 H   0  0  0  0  0  0  0  0  0  0  0  0
   11.0265    0.9502    0.0000 H   0  0  0  0  0  0  0  0  0  0  0  0
   10.2121    2.6316    0.0000 H   0  0  0  0  0  0  0  0  0  0  0  0
    9.3894    2.1567    0.0000 H   0  0  0  0  0  0  0  0  0  0  0  0
    9.3923   -0.4276    0.0000 H   0  0  0  0  0  0  0  0  0  0  0  0
   10.0826   -0.0290    0.0000 H   0  0  0  0  0  0  0  0  0  0  0  0
   11.7584    0.9385    0.0000 H   0  0  0  0  0  0  0  0  0  0  0  0
   12.4486    1.3370    0.0000 H   0  0  0  0  0  0  0  0  0  0  0  0
    8.6077    0.7936    0.0000 H   0  0  0  0  0  0  0  0  0  0  0  0
    7.9174    0.3951    0.0000 H   0  0  0  0  0  0  0  0  0  0  0  0
   12.4737    3.0256    0.0000 H   0  0  0  0  0  0  0  0  0  0  0  0
   11.7834    2.6271    0.0000 H   0  0  0  0  0  0  0  0  0  0  0  0
    7.8923   -1.2936    0.0000 H   0  0  0  0  0  0  0  0  0  0  0  0
    8.5826   -0.8951    0.0000 H   0  0  0  0  0  0  0  0  0  0  0  0
   13.2584    1.8045    0.0000 H   0  0  0  0  0  0  0  0  0  0  0  0
   13.9486    2.2030    0.0000 H   0  0  0  0  0  0  0  0  0  0  0  0
    7.1077   -0.0724    0.0000 H   0  0  0  0  0  0  0  0  0  0  0  0
    6.4174   -0.4710    0.0000 H   0  0  0  0  0  0  0  0  0  0  0  0
   13.9737    3.8917    0.0000 H   0  0  0  0  0  0  0  0  0  0  0  0
   13.2834    3.4931    0.0000 H   0  0  0  0  0  0  0  0  0  0  0  0
    6.3923   -2.1596    0.0000 H   0  0  0  0  0  0  0  0  0  0  0  0
    7.0826   -1.7611    0.0000 H   0  0  0  0  0  0  0  0  0  0  0  0
    5.6077   -0.9385    0.0000 H   0  0  0  0  0  0  0  0  0  0  0  0
    4.9174   -1.3370    0.0000 H   0  0  0  0  0  0  0  0  0  0  0  0
    4.8923   -3.0256    0.0000 H   0  0  0  0  0  0  0  0  0  0  0  0
    5.5826   -2.6271    0.0000 H   0  0  0  0  0  0  0  0  0  0  0  0
    4.1077   -1.8045    0.0000 H   0  0  0  0  0  0  0  0  0  0  0  0
    3.4174   -2.2030    0.0000 H   0  0  0  0  0  0  0  0  0  0  0  0
    3.3923   -3.8917    0.0000 H   0  0  0  0  0  0  0  0  0  0  0  0
    4.0826   -3.4931    0.0000 H   0  0  0  0  0  0  0  0  0  0  0  0
    2.6077   -2.6705    0.0000 H   0  0  0  0  0  0  0  0  0  0  0  0
    1.9174   -3.0690    0.0000 H   0  0  0  0  0  0  0  0  0  0  0  0
    1.4631   -3.8371    0.0000 H   0  0  0  0  0  0  0  0  0  0  0  0
    1.6900   -4.6840    0.0000 H   0  0  0  0  0  0  0  0  0  0  0  0
    2.5369   -4.4571    0.0000 H   0  0  0  0  0  0  0  0  0  0  0  0
   16.3660    3.5271    0.0000 H   0  0  0  0  0  0  0  0  0  0  0  0
   16.9860    4.1471    0.0000 H   0  0  0  0  0  0  0  0  0  0  0  0
   16.3660    4.7671    0.0000 H   0  0  0  0  0  0  0  0  0  0  0  0
  1 17  1  0  0  0  0
  1 22  1  0  0  0  0
  2 17  2  0  0  0  0
  3  4  1  0  0  0  0
  3  5  1  0  0  0  0
  3  6  1  1  0  0  0
  3 23  1  0  0  0  0
  4  5  1  0  0  0  0
  4  7  1  6  0  0  0
  4 24  1  0  0  0  0
  5 25  1  0  0  0  0
  5 26  1  0  0  0  0
  6  8  1  0  0  0  0
  6 27  1  0  0  0  0
  6 28  1  0  0  0  0
  7  9  1  0  0  0  0
  7 29  1  0  0  0  0
  7 30  1  0  0  0  0
  8 10  1  0  0  0  0
  8 31  1  0  0  0  0
  8 32  1  0  0  0  0
  9 11  1  0  0  0  0
  9 33  1  0  0  0  0
  9 34  1  0  0  0  0
 10 12  1  0  0  0  0
 10 35  1  0  0  0  0
 10 36  1  0  0  0  0
 11 13  1  0  0  0  0
 11 37  1  0  0  0  0
 11 38  1  0  0  0  0
 12 14  1  0  0  0  0
 12 39  1  0  0  0  0
 12 40  1  0  0  0  0
 13 17  1  0  0  0  0
 13 41  1  0  0  0  0
 13 42  1  0  0  0  0
 14 15  1  0  0  0  0
 14 43  1  0  0  0  0
 14 44  1  0  0  0  0
 15 16  1  0  0  0  0
 15 45  1  0  0  0  0
 15 46  1  0  0  0  0
 16 18  1  0  0  0  0
 16 47  1  0  0  0  0
 16 48  1  0  0  0  0
 18 19  1  0  0  0  0
 18 49  1  0  0  0  0
 18 50  1  0  0  0  0
 19 20  1  0  0  0  0
 19 51  1  0  0  0  0
 19 52  1  0  0  0  0
 20 21  1  0  0  0  0
 20 53  1  0  0  0  0
 20 54  1  0  0  0  0
 21 55  1  0  0  0  0
 21 56  1  0  0  0  0
 21 57  1  0  0  0  0
 22 58  1  0  0  0  0
 22 59  1  0  0  0  0
 22 60  1  0  0  0  0
M  END
> <PUBCHEM_COMPOUND_CID>
91691232

> <PUBCHEM_COMPOUND_CANONICALIZED>
1

> <PUBCHEM_CACTVS_COMPLEXITY>
275

> <PUBCHEM_CACTVS_HBOND_ACCEPTOR>
2

> <PUBCHEM_CACTVS_HBOND_DONOR>
0

> <PUBCHEM_CACTVS_ROTATABLE_BOND>
16

> <PUBCHEM_CACTVS_SUBSKEYS>
AAADcfB4MAAAAAAAAAAAAAAAGAAAAAAAAAAAAAAAAAAAAAAAAAAAGgAAAAAADQCAgAICCAAABAAIAACQCAAAAAAAAAAAAAEAAAAAABIAAAAAAAAEAAAAAAGIyOCOAAAAAAAAAAAAAAAAAAAAAAAAAAAAAA==

> <PUBCHEM_IUPAC_OPENEYE_NAME>
methyl 5-[(1S,2S)-2-undecylcyclopropyl]pentanoate

> <PUBCHEM_IUPAC_CAS_NAME>
5-[(1S,2S)-2-undecylcyclopropyl]pentanoic acid methyl ester

> <PUBCHEM_IUPAC_NAME_MARKUP>
methyl 5-[(1<I>S</I>,2<I>S</I>)-2-undecylcyclopropyl]pentanoate

> <PUBCHEM_IUPAC_NAME>
methyl 5-[(1S,2S)-2-undecylcyclopropyl]pentanoate

> <PUBCHEM_IUPAC_SYSTEMATIC_NAME>
methyl 5-[(1S,2S)-2-undecylcyclopropyl]pentanoate

> <PUBCHEM_IUPAC_TRADITIONAL_NAME>
5-[(1S,2S)-2-undecylcyclopropyl]valeric acid methyl ester

> <PUBCHEM_IUPAC_INCHI>
InChI=1S/C20H38O2/c1-3-4-5-6-7-8-9-10-11-14-18-17-19(18)15-12-13-16-20(21)22-2/h18-19H,3-17H2,1-2H3/t18-,19-/m0/s1

> <PUBCHEM_IUPAC_INCHIKEY>
RBKVUWMZDIQOTG-OALUTQOASA-N

> <PUBCHEM_XLOGP3_AA>
8.3

> <PUBCHEM_EXACT_MASS>
310.28718

> <PUBCHEM_MOLECULAR_FORMULA>
C20H38O2

> <PUBCHEM_MOLECULAR_WEIGHT>
310.5

> <PUBCHEM_OPENEYE_CAN_SMILES>
CCCCCCCCCCCC1CC1CCCCC(=O)OC

> <PUBCHEM_OPENEYE_ISO_SMILES>
CCCCCCCCCCC[C@H]1C[C@@H]1CCCCC(=O)OC

> <PUBCHEM_CACTVS_TPSA>
26.3

> <PUBCHEM_MONOISOTOPIC_WEIGHT>
310.28718

> <PUBCHEM_TOTAL_CHARGE>
0

> <PUBCHEM_HEAVY_ATOM_COUNT>
22

> <PUBCHEM_ATOM_DEF_STEREO_COUNT>
2

> <PUBCHEM_ATOM_UDEF_STEREO_COUNT>
0

> <PUBCHEM_BOND_DEF_STEREO_COUNT>
0

> <PUBCHEM_BOND_UDEF_STEREO_COUNT>
0

> <PUBCHEM_ISOTOPIC_ATOM_COUNT>
0

> <PUBCHEM_COMPONENT_COUNT>
1

> <PUBCHEM_CACTVS_TAUTO_COUNT>
-1

> <PUBCHEM_COORDINATE_TYPE>
1
5
255

> <PUBCHEM_BONDANNOTATIONS>
3  6  5
4  7  6

$$$$
