102218066
  -OEChem-09302000192D

152152  0     1  0  0  0  0  0999 V2000
    5.4641   -4.3450    0.0000 O   0  0  0  0  0  0  0  0  0  0  0  0
    7.1962   -4.3450    0.0000 O   0  0  0  0  0  0  0  0  0  0  0  0
    5.4641   -7.3450    0.0000 O   0  0  0  0  0  0  0  0  0  0  0  0
    7.1962   -6.3450    0.0000 O   0  0  0  0  0  0  0  0  0  0  0  0
    3.7320   -6.3450    0.0000 O   0  0  0  0  0  0  0  0  0  0  0  0
    8.9282   -1.3450    0.0000 O   0  0  0  0  0  0  0  0  0  0  0  0
    6.3301   -1.8450    0.0000 O   0  0  0  0  0  0  0  0  0  0  0  0
    3.7320   -3.3450    0.0000 O   0  0  0  0  0  0  0  0  0  0  0  0
    9.7942   -1.8450    0.0000 O   0  0  0  0  0  0  0  0  0  0  0  0
   10.6603   -4.3450    0.0000 O   0  0  0  0  0  0  0  0  0  0  0  0
    8.9282   -3.3450    0.0000 N   0  0  0  0  0  0  0  0  0  0  0  0
    5.4641   -6.3450    0.0000 C   0  0  2  0  0  0  0  0  0  0  0  0
    6.3301   -5.8450    0.0000 C   0  0  2  0  0  0  0  0  0  0  0  0
    4.5981   -5.8450    0.0000 C   0  0  1  0  0  0  0  0  0  0  0  0
    6.3301   -4.8450    0.0000 C   0  0  1  0  0  0  0  0  0  0  0  0
    4.5981   -4.8450    0.0000 C   0  0  1  0  0  0  0  0  0  0  0  0
    8.0622   -2.8450    0.0000 C   0  0  2  0  0  0  0  0  0  0  0  0
    8.0622   -1.8450    0.0000 C   0  0  1  0  0  0  0  0  0  0  0  0
    7.1962   -1.3450    0.0000 C   0  0  1  0  0  0  0  0  0  0  0  0
    7.1962   -3.3450    0.0000 C   0  0  0  0  0  0  0  0  0  0  0  0
    7.1962   -0.3450    0.0000 C   0  0  0  0  0  0  0  0  0  0  0  0
    3.7320   -4.3450    0.0000 C   0  0  0  0  0  0  0  0  0  0  0  0
    6.3301    0.1550    0.0000 C   0  0  0  0  0  0  0  0  0  0  0  0
    6.3301    1.1550    0.0000 C   0  0  0  0  0  0  0  0  0  0  0  0
    5.4641    1.6550    0.0000 C   0  0  0  0  0  0  0  0  0  0  0  0
    5.4641    2.6550    0.0000 C   0  0  0  0  0  0  0  0  0  0  0  0
    4.5981    3.1550    0.0000 C   0  0  0  0  0  0  0  0  0  0  0  0
    9.7942   -2.8450    0.0000 C   0  0  0  0  0  0  0  0  0  0  0  0
    4.5981    4.1550    0.0000 C   0  0  0  0  0  0  0  0  0  0  0  0
   10.6603   -3.3450    0.0000 C   0  0  1  0  0  0  0  0  0  0  0  0
    3.7320    4.6550    0.0000 C   0  0  0  0  0  0  0  0  0  0  0  0
   21.9186   -2.8450    0.0000 C   0  0  0  0  0  0  0  0  0  0  0  0
   22.7846   -3.3450    0.0000 C   0  0  0  0  0  0  0  0  0  0  0  0
   21.0526   -3.3450    0.0000 C   0  0  0  0  0  0  0  0  0  0  0  0
   23.6506   -2.8450    0.0000 C   0  0  0  0  0  0  0  0  0  0  0  0
   20.1865   -2.8450    0.0000 C   0  0  0  0  0  0  0  0  0  0  0  0
   24.5167   -3.3450    0.0000 C   0  0  0  0  0  0  0  0  0  0  0  0
   19.3205   -3.3450    0.0000 C   0  0  0  0  0  0  0  0  0  0  0  0
   18.4545   -2.8450    0.0000 C   0  0  0  0  0  0  0  0  0  0  0  0
   25.3827   -2.8450    0.0000 C   0  0  0  0  0  0  0  0  0  0  0  0
   17.5885   -3.3450    0.0000 C   0  0  0  0  0  0  0  0  0  0  0  0
   26.2487   -3.3450    0.0000 C   0  0  0  0  0  0  0  0  0  0  0  0
    3.7320    5.6550    0.0000 C   0  0  0  0  0  0  0  0  0  0  0  0
   11.5263   -2.8450    0.0000 C   0  0  0  0  0  0  0  0  0  0  0  0
   16.7224   -2.8450    0.0000 C   0  0  0  0  0  0  0  0  0  0  0  0
   27.1147   -2.8450    0.0000 C   0  0  0  0  0  0  0  0  0  0  0  0
   15.8564   -3.3450    0.0000 C   0  0  0  0  0  0  0  0  0  0  0  0
   27.9808   -3.3450    0.0000 C   0  0  0  0  0  0  0  0  0  0  0  0
    2.8660    6.1550    0.0000 C   0  0  0  0  0  0  0  0  0  0  0  0
   14.9904   -2.8450    0.0000 C   0  0  0  0  0  0  0  0  0  0  0  0
   28.8468   -2.8450    0.0000 C   0  0  0  0  0  0  0  0  0  0  0  0
   14.1244   -3.3450    0.0000 C   0  0  0  0  0  0  0  0  0  0  0  0
   12.3923   -3.3450    0.0000 C   0  0  0  0  0  0  0  0  0  0  0  0
    2.8660    7.1550    0.0000 C   0  0  0  0  0  0  0  0  0  0  0  0
   29.7128   -3.3450    0.0000 C   0  0  0  0  0  0  0  0  0  0  0  0
   13.2583   -2.8450    0.0000 C   0  0  0  0  0  0  0  0  0  0  0  0
   30.5788   -2.8450    0.0000 C   0  0  0  0  0  0  0  0  0  0  0  0
    2.0000    7.6550    0.0000 C   0  0  0  0  0  0  0  0  0  0  0  0
   31.4449   -3.3450    0.0000 C   0  0  0  0  0  0  0  0  0  0  0  0
    4.9272   -6.6550    0.0000 H   0  0  0  0  0  0  0  0  0  0  0  0
    6.3301   -6.4650    0.0000 H   0  0  0  0  0  0  0  0  0  0  0  0
    4.5981   -6.4650    0.0000 H   0  0  0  0  0  0  0  0  0  0  0  0
    6.3301   -4.2250    0.0000 H   0  0  0  0  0  0  0  0  0  0  0  0
    4.5981   -4.2250    0.0000 H   0  0  0  0  0  0  0  0  0  0  0  0
    8.0622   -3.4650    0.0000 H   0  0  0  0  0  0  0  0  0  0  0  0
    8.0622   -1.2250    0.0000 H   0  0  0  0  0  0  0  0  0  0  0  0
    6.6592   -1.0350    0.0000 H   0  0  0  0  0  0  0  0  0  0  0  0
    6.9841   -2.7624    0.0000 H   0  0  0  0  0  0  0  0  0  0  0  0
    6.5856   -3.4527    0.0000 H   0  0  0  0  0  0  0  0  0  0  0  0
    7.8067   -0.4527    0.0000 H   0  0  0  0  0  0  0  0  0  0  0  0
    7.4082    0.2376    0.0000 H   0  0  0  0  0  0  0  0  0  0  0  0
    3.1215   -4.2373    0.0000 H   0  0  0  0  0  0  0  0  0  0  0  0
    3.5200   -4.9276    0.0000 H   0  0  0  0  0  0  0  0  0  0  0  0
    5.7196    0.2627    0.0000 H   0  0  0  0  0  0  0  0  0  0  0  0
    6.1181   -0.4276    0.0000 H   0  0  0  0  0  0  0  0  0  0  0  0
    6.9407    1.0473    0.0000 H   0  0  0  0  0  0  0  0  0  0  0  0
    6.5422    1.7376    0.0000 H   0  0  0  0  0  0  0  0  0  0  0  0
    8.9282   -3.9650    0.0000 H   0  0  0  0  0  0  0  0  0  0  0  0
    4.9272   -7.6550    0.0000 H   0  0  0  0  0  0  0  0  0  0  0  0
    7.7331   -6.0350    0.0000 H   0  0  0  0  0  0  0  0  0  0  0  0
    3.1951   -6.0350    0.0000 H   0  0  0  0  0  0  0  0  0  0  0  0
    4.8535    1.7627    0.0000 H   0  0  0  0  0  0  0  0  0  0  0  0
    5.2520    1.0724    0.0000 H   0  0  0  0  0  0  0  0  0  0  0  0
    6.0747    2.5473    0.0000 H   0  0  0  0  0  0  0  0  0  0  0  0
    5.6762    3.2376    0.0000 H   0  0  0  0  0  0  0  0  0  0  0  0
    8.9282   -0.7250    0.0000 H   0  0  0  0  0  0  0  0  0  0  0  0
    3.9875    3.2627    0.0000 H   0  0  0  0  0  0  0  0  0  0  0  0
    4.3860    2.5724    0.0000 H   0  0  0  0  0  0  0  0  0  0  0  0
    5.7932   -1.5350    0.0000 H   0  0  0  0  0  0  0  0  0  0  0  0
    5.2087    4.0473    0.0000 H   0  0  0  0  0  0  0  0  0  0  0  0
    4.8101    4.7376    0.0000 H   0  0  0  0  0  0  0  0  0  0  0  0
    3.1951   -3.0350    0.0000 H   0  0  0  0  0  0  0  0  0  0  0  0
   11.1972   -3.6550    0.0000 H   0  0  0  0  0  0  0  0  0  0  0  0
   22.3171   -2.3700    0.0000 H   0  0  0  0  0  0  0  0  0  0  0  0
   21.5201   -2.3700    0.0000 H   0  0  0  0  0  0  0  0  0  0  0  0
    3.1215    4.7627    0.0000 H   0  0  0  0  0  0  0  0  0  0  0  0
    3.5200    4.0724    0.0000 H   0  0  0  0  0  0  0  0  0  0  0  0
   22.3861   -3.8200    0.0000 H   0  0  0  0  0  0  0  0  0  0  0  0
   23.1831   -3.8200    0.0000 H   0  0  0  0  0  0  0  0  0  0  0  0
   20.6540   -3.8200    0.0000 H   0  0  0  0  0  0  0  0  0  0  0  0
   21.4511   -3.8200    0.0000 H   0  0  0  0  0  0  0  0  0  0  0  0
   24.0492   -2.3700    0.0000 H   0  0  0  0  0  0  0  0  0  0  0  0
   23.2521   -2.3700    0.0000 H   0  0  0  0  0  0  0  0  0  0  0  0
   20.5851   -2.3700    0.0000 H   0  0  0  0  0  0  0  0  0  0  0  0
   19.7880   -2.3700    0.0000 H   0  0  0  0  0  0  0  0  0  0  0  0
   24.1181   -3.8200    0.0000 H   0  0  0  0  0  0  0  0  0  0  0  0
   24.9152   -3.8200    0.0000 H   0  0  0  0  0  0  0  0  0  0  0  0
   18.9220   -3.8200    0.0000 H   0  0  0  0  0  0  0  0  0  0  0  0
   19.7190   -3.8200    0.0000 H   0  0  0  0  0  0  0  0  0  0  0  0
   18.8530   -2.3700    0.0000 H   0  0  0  0  0  0  0  0  0  0  0  0
   18.0560   -2.3700    0.0000 H   0  0  0  0  0  0  0  0  0  0  0  0
   25.7812   -2.3700    0.0000 H   0  0  0  0  0  0  0  0  0  0  0  0
   24.9842   -2.3700    0.0000 H   0  0  0  0  0  0  0  0  0  0  0  0
   17.1899   -3.8200    0.0000 H   0  0  0  0  0  0  0  0  0  0  0  0
   17.9870   -3.8200    0.0000 H   0  0  0  0  0  0  0  0  0  0  0  0
   25.8502   -3.8200    0.0000 H   0  0  0  0  0  0  0  0  0  0  0  0
   26.6472   -3.8200    0.0000 H   0  0  0  0  0  0  0  0  0  0  0  0
    4.3426    5.5473    0.0000 H   0  0  0  0  0  0  0  0  0  0  0  0
    3.9441    6.2376    0.0000 H   0  0  0  0  0  0  0  0  0  0  0  0
   11.9248   -2.3700    0.0000 H   0  0  0  0  0  0  0  0  0  0  0  0
   11.1278   -2.3700    0.0000 H   0  0  0  0  0  0  0  0  0  0  0  0
   17.1210   -2.3700    0.0000 H   0  0  0  0  0  0  0  0  0  0  0  0
   16.3239   -2.3700    0.0000 H   0  0  0  0  0  0  0  0  0  0  0  0
   27.5133   -2.3700    0.0000 H   0  0  0  0  0  0  0  0  0  0  0  0
   26.7162   -2.3700    0.0000 H   0  0  0  0  0  0  0  0  0  0  0  0
   15.4579   -3.8200    0.0000 H   0  0  0  0  0  0  0  0  0  0  0  0
   16.2549   -3.8200    0.0000 H   0  0  0  0  0  0  0  0  0  0  0  0
   27.5822   -3.8200    0.0000 H   0  0  0  0  0  0  0  0  0  0  0  0
   28.3793   -3.8200    0.0000 H   0  0  0  0  0  0  0  0  0  0  0  0
    2.2554    6.2627    0.0000 H   0  0  0  0  0  0  0  0  0  0  0  0
    2.6540    5.5724    0.0000 H   0  0  0  0  0  0  0  0  0  0  0  0
   15.3889   -2.3700    0.0000 H   0  0  0  0  0  0  0  0  0  0  0  0
   14.5919   -2.3700    0.0000 H   0  0  0  0  0  0  0  0  0  0  0  0
   29.2453   -2.3700    0.0000 H   0  0  0  0  0  0  0  0  0  0  0  0
   28.4483   -2.3700    0.0000 H   0  0  0  0  0  0  0  0  0  0  0  0
   13.7258   -3.8200    0.0000 H   0  0  0  0  0  0  0  0  0  0  0  0
   14.5229   -3.8200    0.0000 H   0  0  0  0  0  0  0  0  0  0  0  0
   12.3923   -3.9650    0.0000 H   0  0  0  0  0  0  0  0  0  0  0  0
   11.1972   -4.6550    0.0000 H   0  0  0  0  0  0  0  0  0  0  0  0
    3.4766    7.0473    0.0000 H   0  0  0  0  0  0  0  0  0  0  0  0
    3.0781    7.7376    0.0000 H   0  0  0  0  0  0  0  0  0  0  0  0
   29.3143   -3.8200    0.0000 H   0  0  0  0  0  0  0  0  0  0  0  0
   30.1113   -3.8200    0.0000 H   0  0  0  0  0  0  0  0  0  0  0  0
   13.2583   -2.2250    0.0000 H   0  0  0  0  0  0  0  0  0  0  0  0
   30.9774   -2.3700    0.0000 H   0  0  0  0  0  0  0  0  0  0  0  0
   30.1803   -2.3700    0.0000 H   0  0  0  0  0  0  0  0  0  0  0  0
    2.3100    8.1919    0.0000 H   0  0  0  0  0  0  0  0  0  0  0  0
    1.4631    7.9650    0.0000 H   0  0  0  0  0  0  0  0  0  0  0  0
    1.6900    7.1181    0.0000 H   0  0  0  0  0  0  0  0  0  0  0  0
   31.1349   -3.8819    0.0000 H   0  0  0  0  0  0  0  0  0  0  0  0
   31.9818   -3.6550    0.0000 H   0  0  0  0  0  0  0  0  0  0  0  0
   31.7549   -2.8081    0.0000 H   0  0  0  0  0  0  0  0  0  0  0  0
  1 15  1  0  0  0  0
  1 16  1  0  0  0  0
 15  2  1  1  0  0  0
  2 20  1  0  0  0  0
 12  3  1  1  0  0  0
  3 79  1  0  0  0  0
 13  4  1  6  0  0  0
  4 80  1  0  0  0  0
 14  5  1  6  0  0  0
  5 81  1  0  0  0  0
 18  6  1  1  0  0  0
  6 86  1  0  0  0  0
 19  7  1  6  0  0  0
  7 89  1  0  0  0  0
  8 22  1  0  0  0  0
  8 92  1  0  0  0  0
  9 28  2  0  0  0  0
 30 10  1  1  0  0  0
 10139  1  0  0  0  0
 17 11  1  1  0  0  0
 11 28  1  0  0  0  0
 11 78  1  0  0  0  0
 12 13  1  0  0  0  0
 12 14  1  0  0  0  0
 12 60  1  0  0  0  0
 13 15  1  0  0  0  0
 13 61  1  0  0  0  0
 14 16  1  0  0  0  0
 14 62  1  0  0  0  0
 15 63  1  0  0  0  0
 16 22  1  1  0  0  0
 16 64  1  0  0  0  0
 17 18  1  0  0  0  0
 17 20  1  0  0  0  0
 17 65  1  0  0  0  0
 18 19  1  0  0  0  0
 18 66  1  0  0  0  0
 19 21  1  0  0  0  0
 19 67  1  0  0  0  0
 20 68  1  0  0  0  0
 20 69  1  0  0  0  0
 21 23  1  0  0  0  0
 21 70  1  0  0  0  0
 21 71  1  0  0  0  0
 22 72  1  0  0  0  0
 22 73  1  0  0  0  0
 23 24  1  0  0  0  0
 23 74  1  0  0  0  0
 23 75  1  0  0  0  0
 24 25  1  0  0  0  0
 24 76  1  0  0  0  0
 24 77  1  0  0  0  0
 25 26  1  0  0  0  0
 25 82  1  0  0  0  0
 25 83  1  0  0  0  0
 26 27  1  0  0  0  0
 26 84  1  0  0  0  0
 26 85  1  0  0  0  0
 27 29  1  0  0  0  0
 27 87  1  0  0  0  0
 27 88  1  0  0  0  0
 28 30  1  0  0  0  0
 29 31  1  0  0  0  0
 29 90  1  0  0  0  0
 29 91  1  0  0  0  0
 30 44  1  0  0  0  0
 30 93  1  0  0  0  0
 31 43  1  0  0  0  0
 31 96  1  0  0  0  0
 31 97  1  0  0  0  0
 32 33  1  0  0  0  0
 32 34  1  0  0  0  0
 32 94  1  0  0  0  0
 32 95  1  0  0  0  0
 33 35  1  0  0  0  0
 33 98  1  0  0  0  0
 33 99  1  0  0  0  0
 34 36  1  0  0  0  0
 34100  1  0  0  0  0
 34101  1  0  0  0  0
 35 37  1  0  0  0  0
 35102  1  0  0  0  0
 35103  1  0  0  0  0
 36 38  1  0  0  0  0
 36104  1  0  0  0  0
 36105  1  0  0  0  0
 37 40  1  0  0  0  0
 37106  1  0  0  0  0
 37107  1  0  0  0  0
 38 39  1  0  0  0  0
 38108  1  0  0  0  0
 38109  1  0  0  0  0
 39 41  1  0  0  0  0
 39110  1  0  0  0  0
 39111  1  0  0  0  0
 40 42  1  0  0  0  0
 40112  1  0  0  0  0
 40113  1  0  0  0  0
 41 45  1  0  0  0  0
 41114  1  0  0  0  0
 41115  1  0  0  0  0
 42 46  1  0  0  0  0
 42116  1  0  0  0  0
 42117  1  0  0  0  0
 43 49  1  0  0  0  0
 43118  1  0  0  0  0
 43119  1  0  0  0  0
 44 53  1  0  0  0  0
 44120  1  0  0  0  0
 44121  1  0  0  0  0
 45 47  1  0  0  0  0
 45122  1  0  0  0  0
 45123  1  0  0  0  0
 46 48  1  0  0  0  0
 46124  1  0  0  0  0
 46125  1  0  0  0  0
 47 50  1  0  0  0  0
 47126  1  0  0  0  0
 47127  1  0  0  0  0
 48 51  1  0  0  0  0
 48128  1  0  0  0  0
 48129  1  0  0  0  0
 49 54  1  0  0  0  0
 49130  1  0  0  0  0
 49131  1  0  0  0  0
 50 52  1  0  0  0  0
 50132  1  0  0  0  0
 50133  1  0  0  0  0
 51 55  1  0  0  0  0
 51134  1  0  0  0  0
 51135  1  0  0  0  0
 52 56  1  0  0  0  0
 52136  1  0  0  0  0
 52137  1  0  0  0  0
 53 56  2  0  0  0  0
 53138  1  0  0  0  0
 54 58  1  0  0  0  0
 54140  1  0  0  0  0
 54141  1  0  0  0  0
 55 57  1  0  0  0  0
 55142  1  0  0  0  0
 55143  1  0  0  0  0
 56144  1  0  0  0  0
 57 59  1  0  0  0  0
 57145  1  0  0  0  0
 57146  1  0  0  0  0
 58147  1  0  0  0  0
 58148  1  0  0  0  0
 58149  1  0  0  0  0
 59150  1  0  0  0  0
 59151  1  0  0  0  0
 59152  1  0  0  0  0
M  END
> <PUBCHEM_COMPOUND_CID>
102218066

> <PUBCHEM_COMPOUND_CANONICALIZED>
1

> <PUBCHEM_CACTVS_COMPLEXITY>
972

> <PUBCHEM_CACTVS_HBOND_ACCEPTOR>
10

> <PUBCHEM_CACTVS_HBOND_DONOR>
8

> <PUBCHEM_CACTVS_ROTATABLE_BOND>
41

> <PUBCHEM_CACTVS_SUBSKEYS>
AAADcfB+PAAAAAAAAAAAAAAAAAAAAAAAAAAkAAAAAAAAAAAAAAAAHgAQCAAACDzxgAcCCALABgCIACFSEAIAAAAgAAAICIFIAAgTEBIAgQAnQAAH1gCfAAPQ4KwAAAAAAAAAAAAAAAAAAAAAAAAAAAAAAA==

> <PUBCHEM_IUPAC_OPENEYE_NAME>
(E,2R)-N-[(1S,2S,3R)-2,3-dihydroxy-1-[[(2R,3R,4S,5S,6R)-3,4,5-trihydroxy-6-(hydroxymethyl)tetrahydropyran-2-yl]oxymethyl]pentadecyl]-2-hydroxy-hexacos-4-enamide

> <PUBCHEM_IUPAC_CAS_NAME>
(E,2R)-N-[(2S,3S,4R)-3,4-dihydroxy-1-[[(2R,3R,4S,5S,6R)-3,4,5-trihydroxy-6-(hydroxymethyl)-2-oxanyl]oxy]hexadecan-2-yl]-2-hydroxy-4-hexacosenamide

> <PUBCHEM_IUPAC_NAME_MARKUP>
(<I>E</I>,2<I>R</I>)-<I>N</I>-[(2<I>S</I>,3<I>S</I>,4<I>R</I>)-3,4-dihydroxy-1-[(2<I>R</I>,3<I>R</I>,4<I>S</I>,5<I>S</I>,6<I>R</I>)-3,4,5-trihydroxy-6-(hydroxymethyl)oxan-2-yl]oxyhexadecan-2-yl]-2-hydroxyhexacos-4-enamide

> <PUBCHEM_IUPAC_NAME>
(E,2R)-N-[(2S,3S,4R)-3,4-dihydroxy-1-[(2R,3R,4S,5S,6R)-3,4,5-trihydroxy-6-(hydroxymethyl)oxan-2-yl]oxyhexadecan-2-yl]-2-hydroxyhexacos-4-enamide

> <PUBCHEM_IUPAC_SYSTEMATIC_NAME>
(E,2R)-N-[(2S,3S,4R)-1-[(2R,3R,4S,5S,6R)-6-(hydroxymethyl)-3,4,5-tris(oxidanyl)oxan-2-yl]oxy-3,4-bis(oxidanyl)hexadecan-2-yl]-2-oxidanyl-hexacos-4-enamide

> <PUBCHEM_IUPAC_TRADITIONAL_NAME>
(E,2R)-N-[(1S,2S,3R)-2,3-dihydroxy-1-[[(2R,3R,4S,5S,6R)-3,4,5-trihydroxy-6-methylol-tetrahydropyran-2-yl]oxymethyl]pentadecyl]-2-hydroxy-hexacos-4-enamide

> <PUBCHEM_IUPAC_INCHI>
InChI=1S/C48H93NO10/c1-3-5-7-9-11-13-15-16-17-18-19-20-21-22-23-24-25-26-28-30-32-34-36-41(52)47(57)49-39(38-58-48-46(56)45(55)44(54)42(37-50)59-48)43(53)40(51)35-33-31-29-27-14-12-10-8-6-4-2/h32,34,39-46,48,50-56H,3-31,33,35-38H2,1-2H3,(H,49,57)/b34-32+/t39-,40+,41+,42+,43-,44+,45-,46+,48+/m0/s1

> <PUBCHEM_IUPAC_INCHIKEY>
KJNHIWUXQRJQQY-QVWSJUNLSA-N

> <PUBCHEM_XLOGP3_AA>
13.7

> <PUBCHEM_EXACT_MASS>
843.679948

> <PUBCHEM_MOLECULAR_FORMULA>
C48H93NO10

> <PUBCHEM_MOLECULAR_WEIGHT>
844.3

> <PUBCHEM_OPENEYE_CAN_SMILES>
CCCCCCCCCCCCCCCCCCCCCC=CCC(C(=O)NC(COC1C(C(C(C(O1)CO)O)O)O)C(C(CCCCCCCCCCCC)O)O)O

> <PUBCHEM_OPENEYE_ISO_SMILES>
CCCCCCCCCCCCCCCCCCCCC/C=C/C[C@H](C(=O)N[C@@H](CO[C@H]1[C@@H]([C@H]([C@@H]([C@H](O1)CO)O)O)O)[C@@H]([C@@H](CCCCCCCCCCCC)O)O)O

> <PUBCHEM_CACTVS_TPSA>
189

> <PUBCHEM_MONOISOTOPIC_WEIGHT>
843.679948

> <PUBCHEM_TOTAL_CHARGE>
0

> <PUBCHEM_HEAVY_ATOM_COUNT>
59

> <PUBCHEM_ATOM_DEF_STEREO_COUNT>
9

> <PUBCHEM_ATOM_UDEF_STEREO_COUNT>
0

> <PUBCHEM_BOND_DEF_STEREO_COUNT>
1

> <PUBCHEM_BOND_UDEF_STEREO_COUNT>
0

> <PUBCHEM_ISOTOPIC_ATOM_COUNT>
0

> <PUBCHEM_COMPONENT_COUNT>
1

> <PUBCHEM_CACTVS_TAUTO_COUNT>
-1

> <PUBCHEM_COORDINATE_TYPE>
1
5
255

> <PUBCHEM_BONDANNOTATIONS>
30  10  5
17  11  5
16  22  5
15  2  5
12  3  5
13  4  6
14  5  6
18  6  5
19  7  6

$$$$
