12313756
  -OEChem-08222016593D

 43 44  0     1  0  0  0  0  0999 V2000
    1.6615   -1.6976   -1.4096 O   0  0  0  0  0  0  0  0  0  0  0  0
    2.4022    2.6765    0.0757 O   0  0  0  0  0  0  0  0  0  0  0  0
    0.7069    0.9135   -0.0517 C   0  0  2  0  0  0  0  0  0  0  0  0
    0.4372   -0.5687    0.3788 C   0  0  2  0  0  0  0  0  0  0  0  0
    1.5864   -1.5528    0.0094 C   0  0  2  0  0  0  0  0  0  0  0  0
    2.0891    1.3544    0.5085 C   0  0  1  0  0  0  0  0  0  0  0  0
   -0.9563   -1.0447   -0.1012 C   0  0  0  0  0  0  0  0  0  0  0  0
    2.9379   -1.0247    0.5291 C   0  0  0  0  0  0  0  0  0  0  0  0
   -0.4034    1.8011    0.5868 C   0  0  0  0  0  0  0  0  0  0  0  0
    3.2241    0.4121    0.1052 C   0  0  0  0  0  0  0  0  0  0  0  0
    0.6586    1.1278   -1.5886 C   0  0  0  0  0  0  0  0  0  0  0  0
   -2.0531   -0.0240    0.0937 C   0  0  0  0  0  0  0  0  0  0  0  0
   -1.7915    1.2528    0.4200 C   0  0  0  0  0  0  0  0  0  0  0  0
    1.3447   -2.9548    0.5883 C   0  0  0  0  0  0  0  0  0  0  0  0
   -3.4564   -0.5199   -0.0971 C   0  0  0  0  0  0  0  0  0  0  0  0
   -4.2489   -0.3701    1.1969 C   0  0  0  0  0  0  0  0  0  0  0  0
   -4.1390    0.2190   -1.2442 C   0  0  0  0  0  0  0  0  0  0  0  0
    0.3920   -0.5627    1.4808 H   0  0  0  0  0  0  0  0  0  0  0  0
    2.0512    1.3794    1.6057 H   0  0  0  0  0  0  0  0  0  0  0  0
   -1.2267   -1.9460    0.4623 H   0  0  0  0  0  0  0  0  0  0  0  0
   -0.9360   -1.3222   -1.1608 H   0  0  0  0  0  0  0  0  0  0  0  0
    3.7536   -1.6576    0.1576 H   0  0  0  0  0  0  0  0  0  0  0  0
    2.9597   -1.0789    1.6252 H   0  0  0  0  0  0  0  0  0  0  0  0
   -0.3774    2.8076    0.1511 H   0  0  0  0  0  0  0  0  0  0  0  0
   -0.2249    1.9234    1.6628 H   0  0  0  0  0  0  0  0  0  0  0  0
    4.1590    0.7524    0.5682 H   0  0  0  0  0  0  0  0  0  0  0  0
    3.4067    0.4658   -0.9744 H   0  0  0  0  0  0  0  0  0  0  0  0
    1.4754    0.6242   -2.1101 H   0  0  0  0  0  0  0  0  0  0  0  0
   -0.2765    0.7735   -2.0321 H   0  0  0  0  0  0  0  0  0  0  0  0
    0.7390    2.1922   -1.8391 H   0  0  0  0  0  0  0  0  0  0  0  0
   -2.6015    1.9597    0.5763 H   0  0  0  0  0  0  0  0  0  0  0  0
    0.4667   -3.4350    0.1439 H   0  0  0  0  0  0  0  0  0  0  0  0
    2.1904   -3.6149    0.3616 H   0  0  0  0  0  0  0  0  0  0  0  0
    1.2153   -2.9251    1.6750 H   0  0  0  0  0  0  0  0  0  0  0  0
   -3.4356   -1.5864   -0.3555 H   0  0  0  0  0  0  0  0  0  0  0  0
    0.8982   -2.2162   -1.7131 H   0  0  0  0  0  0  0  0  0  0  0  0
    1.7789    3.2864    0.5044 H   0  0  0  0  0  0  0  0  0  0  0  0
   -4.4038    0.6777    1.4767 H   0  0  0  0  0  0  0  0  0  0  0  0
   -3.7456   -0.8732    2.0304 H   0  0  0  0  0  0  0  0  0  0  0  0
   -5.2398   -0.8258    1.0891 H   0  0  0  0  0  0  0  0  0  0  0  0
   -3.5563    0.1369   -2.1688 H   0  0  0  0  0  0  0  0  0  0  0  0
   -4.2848    1.2833   -1.0292 H   0  0  0  0  0  0  0  0  0  0  0  0
   -5.1277   -0.2118   -1.4387 H   0  0  0  0  0  0  0  0  0  0  0  0
  1  5  1  0  0  0  0
  1 36  1  0  0  0  0
  2  6  1  0  0  0  0
  2 37  1  0  0  0  0
  3  4  1  0  0  0  0
  3  6  1  0  0  0  0
  3  9  1  0  0  0  0
  3 11  1  0  0  0  0
  4  5  1  0  0  0  0
  4  7  1  0  0  0  0
  4 18  1  0  0  0  0
  5  8  1  0  0  0  0
  5 14  1  0  0  0  0
  6 10  1  0  0  0  0
  6 19  1  0  0  0  0
  7 12  1  0  0  0  0
  7 20  1  0  0  0  0
  7 21  1  0  0  0  0
  8 10  1  0  0  0  0
  8 22  1  0  0  0  0
  8 23  1  0  0  0  0
  9 13  1  0  0  0  0
  9 24  1  0  0  0  0
  9 25  1  0  0  0  0
 10 26  1  0  0  0  0
 10 27  1  0  0  0  0
 11 28  1  0  0  0  0
 11 29  1  0  0  0  0
 11 30  1  0  0  0  0
 12 13  2  0  0  0  0
 12 15  1  0  0  0  0
 13 31  1  0  0  0  0
 14 32  1  0  0  0  0
 14 33  1  0  0  0  0
 14 34  1  0  0  0  0
 15 16  1  0  0  0  0
 15 17  1  0  0  0  0
 15 35  1  0  0  0  0
 16 38  1  0  0  0  0
 16 39  1  0  0  0  0
 16 40  1  0  0  0  0
 17 41  1  0  0  0  0
 17 42  1  0  0  0  0
 17 43  1  0  0  0  0
M  END
> <PUBCHEM_COMPOUND_CID>
12313756

> <PUBCHEM_CONFORMER_RMSD>
0.6

> <PUBCHEM_CONFORMER_DIVERSEORDER>
1
2

> <PUBCHEM_MMFF94_PARTIAL_CHARGES>
12
1 -0.68
12 -0.28
13 -0.29
15 0.14
2 -0.68
31 0.15
36 0.4
37 0.4
5 0.28
6 0.28
7 0.14
9 0.14

> <PUBCHEM_EFFECTIVE_ROTOR_COUNT>
2.2

> <PUBCHEM_PHARMACOPHORE_FEATURES>
7
1 1 acceptor
1 1 donor
1 2 acceptor
1 2 donor
3 15 16 17 hydrophobe
6 3 4 5 6 8 10 rings
6 3 4 7 9 12 13 rings

> <PUBCHEM_HEAVY_ATOM_COUNT>
17

> <PUBCHEM_ATOM_DEF_STEREO_COUNT>
4

> <PUBCHEM_ATOM_UDEF_STEREO_COUNT>
0

> <PUBCHEM_BOND_DEF_STEREO_COUNT>
0

> <PUBCHEM_BOND_UDEF_STEREO_COUNT>
0

> <PUBCHEM_ISOTOPIC_ATOM_COUNT>
0

> <PUBCHEM_COMPONENT_COUNT>
1

> <PUBCHEM_CACTVS_TAUTO_COUNT>
1

> <PUBCHEM_CONFORMER_ID>
00BBE49C00000001

> <PUBCHEM_MMFF94_ENERGY>
47.3812

> <PUBCHEM_FEATURE_SELFOVERLAP>
35.535

> <PUBCHEM_SHAPE_FINGERPRINT>
10922523 26 18040991843757907165
10967382 1 18411135865847939490
10980938 120 18342735247431220897
11132069 177 18270386300002403176
11471102 20 18410285913115523341
11806522 49 18411698781278293334
12011746 2 18408601448986665494
12553582 1 18123477076929705715
12654215 9 18187634778441988647
13140716 1 18267864067573087962
13296908 3 18114181930524767739
13705890 14 17530970172088844091
14178342 30 18196927765279905728
14181834 199 18408881849657043478
14251717 144 18412818101432362599
14817 1 11754319908765008334
15219456 202 18187361047839932209
15375462 189 18202566198435336275
15442244 35 18052537669015764193
15501101 241 18334575720123064660
15536298 74 18272933808382931194
15775835 57 18200317761069541937
16945 1 18411416198379180114
18186145 218 18341055228055671381
19049666 15 18114458942956617779
200 152 18201706341613947437
20201158 50 18335699425365091515
20511035 2 18046912859733531154
20559304 39 18412830153094589154
20645476 183 17681563850327123460
20645477 70 18342168956478696239
21501502 16 18268147548236280424
21730867 7 18409165532421049681
2255824 54 18410860962123816250
22854114 111 18411138064908202665
23184049 29 17905886977014259762
2334 1 17979914135537285698
23388829 49 18272081678260494537
23419403 2 16955021728080290902
23463225 33 18411980269113486800
23559900 14 18337097969674363666
257057 1 17832413207725862138
2748010 2 18408887334319724001
296302 2 16877663469667123540
581208 293 18341604949367220857
633830 44 18058464255712151557
7364860 26 18272093790068165308
77492 1 17632295692285519259
7832392 63 17981050712827986289
81228 2 17477765680541318513
81539 233 18335136548341575268

> <PUBCHEM_SHAPE_MULTIPOLES>
338.11
6.11
2.44
1.12
5.93
0.4
-0.33
0.43
0.32
-2.13
0.22
0.42
-0.03
0.14

> <PUBCHEM_SHAPE_SELFOVERLAP>
692.834

> <PUBCHEM_SHAPE_VOLUME>
194.7

> <PUBCHEM_COORDINATE_TYPE>
2
5
10

$$$$
