101417559
  -OEChem-08222016573D

 42 43  0     1  0  0  0  0  0999 V2000
   -0.8589    3.0648    0.2311 O   0  0  0  0  0  0  0  0  0  0  0  0
    2.4943    0.4534    0.0455 C   0  0  0  0  0  0  0  0  0  0  0  0
    1.0166    0.6668    0.3762 C   0  0  2  0  0  0  0  0  0  0  0  0
    1.6554   -0.7131    0.5396 C   0  0  1  0  0  0  0  0  0  0  0  0
    0.0111    1.0137   -0.6939 C   0  0  0  0  0  0  0  0  0  0  0  0
    1.3964   -1.9186   -0.3297 C   0  0  0  0  0  0  0  0  0  0  0  0
    3.5039    1.0252    1.0126 C   0  0  0  0  0  0  0  0  0  0  0  0
    2.9697    0.4898   -1.3864 C   0  0  0  0  0  0  0  0  0  0  0  0
   -1.2616    1.7491   -0.1945 C   0  0  1  0  0  0  0  0  0  0  0  0
    0.2622   -2.8123    0.2051 C   0  0  0  0  0  0  0  0  0  0  0  0
   -2.0264    1.1424    1.0111 C   0  0  0  0  0  0  0  0  0  0  0  0
   -2.2168    1.9479   -1.3828 C   0  0  0  0  0  0  0  0  0  0  0  0
   -1.0810   -2.1427    0.0190 C   0  0  0  0  0  0  0  0  0  0  0  0
   -2.5990   -0.2771    0.8731 C   0  0  0  0  0  0  0  0  0  0  0  0
   -1.5057   -1.2915    0.9698 C   0  0  0  0  0  0  0  0  0  0  0  0
   -1.7604   -2.3977   -1.2959 C   0  0  0  0  0  0  0  0  0  0  0  0
    0.8274    1.2234    1.2895 H   0  0  0  0  0  0  0  0  0  0  0  0
    1.8341   -1.0334    1.5641 H   0  0  0  0  0  0  0  0  0  0  0  0
   -0.2685    0.1304   -1.2709 H   0  0  0  0  0  0  0  0  0  0  0  0
    0.5119    1.6903   -1.3994 H   0  0  0  0  0  0  0  0  0  0  0  0
    2.3171   -2.5153   -0.3449 H   0  0  0  0  0  0  0  0  0  0  0  0
    1.1919   -1.6437   -1.3690 H   0  0  0  0  0  0  0  0  0  0  0  0
    2.2173    0.1519   -2.1039 H   0  0  0  0  0  0  0  0  0  0  0  0
    4.4439    0.4664    0.9557 H   0  0  0  0  0  0  0  0  0  0  0  0
    3.1516    0.9832    2.0490 H   0  0  0  0  0  0  0  0  0  0  0  0
    3.8531   -0.1465   -1.5055 H   0  0  0  0  0  0  0  0  0  0  0  0
    3.2474    1.5121   -1.6651 H   0  0  0  0  0  0  0  0  0  0  0  0
    3.7095    2.0735    0.7719 H   0  0  0  0  0  0  0  0  0  0  0  0
    0.4351   -3.0493    1.2626 H   0  0  0  0  0  0  0  0  0  0  0  0
    0.2696   -3.7721   -0.3258 H   0  0  0  0  0  0  0  0  0  0  0  0
   -2.8709    1.8083    1.2426 H   0  0  0  0  0  0  0  0  0  0  0  0
   -1.3968    1.2021    1.9096 H   0  0  0  0  0  0  0  0  0  0  0  0
   -1.7360    2.5396   -2.1706 H   0  0  0  0  0  0  0  0  0  0  0  0
   -3.1100    2.5077   -1.0827 H   0  0  0  0  0  0  0  0  0  0  0  0
   -2.5341    0.9950   -1.8169 H   0  0  0  0  0  0  0  0  0  0  0  0
   -3.1899   -0.3604   -0.0407 H   0  0  0  0  0  0  0  0  0  0  0  0
   -3.2928   -0.4573    1.7035 H   0  0  0  0  0  0  0  0  0  0  0  0
   -1.6588    3.5693    0.4577 H   0  0  0  0  0  0  0  0  0  0  0  0
   -0.9209   -1.2228    1.8873 H   0  0  0  0  0  0  0  0  0  0  0  0
   -1.1423   -2.0417   -2.1259 H   0  0  0  0  0  0  0  0  0  0  0  0
   -2.7381   -1.9185   -1.3782 H   0  0  0  0  0  0  0  0  0  0  0  0
   -1.9230   -3.4729   -1.4274 H   0  0  0  0  0  0  0  0  0  0  0  0
  1  9  1  0  0  0  0
  1 38  1  0  0  0  0
  2  3  1  0  0  0  0
  2  4  1  0  0  0  0
  2  7  1  0  0  0  0
  2  8  1  0  0  0  0
  3  4  1  0  0  0  0
  3  5  1  0  0  0  0
  3 17  1  0  0  0  0
  4  6  1  0  0  0  0
  4 18  1  0  0  0  0
  5  9  1  0  0  0  0
  5 19  1  0  0  0  0
  5 20  1  0  0  0  0
  6 10  1  0  0  0  0
  6 21  1  0  0  0  0
  6 22  1  0  0  0  0
  7 24  1  0  0  0  0
  7 25  1  0  0  0  0
  7 28  1  0  0  0  0
  8 23  1  0  0  0  0
  8 26  1  0  0  0  0
  8 27  1  0  0  0  0
  9 11  1  0  0  0  0
  9 12  1  0  0  0  0
 10 13  1  0  0  0  0
 10 29  1  0  0  0  0
 10 30  1  0  0  0  0
 11 14  1  0  0  0  0
 11 31  1  0  0  0  0
 11 32  1  0  0  0  0
 12 33  1  0  0  0  0
 12 34  1  0  0  0  0
 12 35  1  0  0  0  0
 13 15  2  0  0  0  0
 13 16  1  0  0  0  0
 14 15  1  0  0  0  0
 14 36  1  0  0  0  0
 14 37  1  0  0  0  0
 15 39  1  0  0  0  0
 16 40  1  0  0  0  0
 16 41  1  0  0  0  0
 16 42  1  0  0  0  0
M  END
> <PUBCHEM_COMPOUND_CID>
101417559

> <PUBCHEM_CONFORMER_RMSD>
0.6

> <PUBCHEM_CONFORMER_DIVERSEORDER>
1
2
3

> <PUBCHEM_MMFF94_PARTIAL_CHARGES>
18
1 -0.68
10 0.14
13 -0.28
14 0.14
15 -0.29
16 0.14
17 0.1
18 0.1
2 -0.19
3 -0.19
38 0.4
39 0.15
4 -0.19
5 0.09
6 0.09
7 0.09
8 0.09
9 0.28

> <PUBCHEM_EFFECTIVE_ROTOR_COUNT>
1.4

> <PUBCHEM_PHARMACOPHORE_FEATURES>
3
1 1 acceptor
1 1 donor
3 2 7 8 hydrophobe

> <PUBCHEM_HEAVY_ATOM_COUNT>
16

> <PUBCHEM_ATOM_DEF_STEREO_COUNT>
2

> <PUBCHEM_ATOM_UDEF_STEREO_COUNT>
1

> <PUBCHEM_BOND_DEF_STEREO_COUNT>
1

> <PUBCHEM_BOND_UDEF_STEREO_COUNT>
0

> <PUBCHEM_ISOTOPIC_ATOM_COUNT>
0

> <PUBCHEM_COMPONENT_COUNT>
1

> <PUBCHEM_CACTVS_TAUTO_COUNT>
1

> <PUBCHEM_CONFORMER_ID>
060B825700000001

> <PUBCHEM_MMFF94_ENERGY>
45.0091

> <PUBCHEM_FEATURE_SELFOVERLAP>
15.223

> <PUBCHEM_SHAPE_FINGERPRINT>
11132069 177 18270121352197056048
11680986 33 18047466725689041106
12382932 28 18337678619087759136
13140716 1 18049448333156766961
14251711 518 17688322595273434914
14251751 93 18188791456791402070
14386348 128 18195830499508250008
14614273 12 18410005567736460027
14817 1 18127155136534224527
15490181 7 18340486651758278826
15490181 8 17903638475666879489
15775835 57 18342752796657276931
15852999 172 17898268533764671445
15881359 60 18187636999330431711
16945 1 18409737295541854416
17990270 104 17544758924069332179
19868273 325 18121786289854107090
19930374 2 18335692866860164872
20388701 513 18194954369572618152
20511035 2 18046628897628053090
20871998 184 18335708251586194809
21160774 45 18410011065484405629
220403 375 18189603948038327139
22802520 49 18128279911350046038
2334 1 17689443001895831481
23402539 116 17912913178528232766
23559900 14 18200605688374431054
238 59 17905311941122990757
2748010 2 18191876625619362373
7364860 26 17475785464342257728
81228 2 18196374933973800354

> <PUBCHEM_SHAPE_MULTIPOLES>
323.4
4.27
3.28
1.27
2.8
0.49
0.25
-1.06
-0.22
-1.78
0.5
-0.17
-0.13
0.13

> <PUBCHEM_SHAPE_SELFOVERLAP>
645.298

> <PUBCHEM_SHAPE_VOLUME>
191.7

> <PUBCHEM_COORDINATE_TYPE>
2
5
10

$$$$
