11608142
  -OEChem-08222016483D

 30 31  0     1  0  0  0  0  0999 V2000
    0.3488   -0.5571   -0.1596 O   0  0  0  0  0  0  0  0  0  0  0  0
    2.4850   -2.2076   -0.1469 O   0  0  0  0  0  0  0  0  0  0  0  0
   -0.6004    0.4404   -0.3374 N   0  0  0  0  0  0  0  0  0  0  0  0
    1.8377    1.1950    0.5033 C   0  0  0  0  0  0  0  0  0  0  0  0
    3.2378    1.7821    0.3451 C   0  0  0  0  0  0  0  0  0  0  0  0
    1.6071    0.0227   -0.4432 C   0  0  1  0  0  0  0  0  0  0  0  0
    4.3081    0.7150    0.5692 C   0  0  0  0  0  0  0  0  0  0  0  0
    4.1273   -0.4755   -0.3637 C   0  0  0  0  0  0  0  0  0  0  0  0
    2.7133   -1.0059   -0.2728 C   0  0  0  0  0  0  0  0  0  0  0  0
   -1.9704    0.2282   -0.1429 C   0  0  0  0  0  0  0  0  0  0  0  0
   -2.9016    1.1855   -0.5633 C   0  0  0  0  0  0  0  0  0  0  0  0
   -2.4249   -0.9441    0.4730 C   0  0  0  0  0  0  0  0  0  0  0  0
   -4.2668    0.9739   -0.3705 C   0  0  0  0  0  0  0  0  0  0  0  0
   -3.7900   -1.1559    0.6658 C   0  0  0  0  0  0  0  0  0  0  0  0
   -4.7109   -0.1968    0.2440 C   0  0  0  0  0  0  0  0  0  0  0  0
    1.6940    0.8679    1.5421 H   0  0  0  0  0  0  0  0  0  0  0  0
    1.1194    2.0069    0.3444 H   0  0  0  0  0  0  0  0  0  0  0  0
    3.3785    2.5975    1.0638 H   0  0  0  0  0  0  0  0  0  0  0  0
    3.3484    2.2131   -0.6575 H   0  0  0  0  0  0  0  0  0  0  0  0
    1.6381    0.3443   -1.4931 H   0  0  0  0  0  0  0  0  0  0  0  0
    4.2592    0.3725    1.6106 H   0  0  0  0  0  0  0  0  0  0  0  0
    5.3021    1.1516    0.4212 H   0  0  0  0  0  0  0  0  0  0  0  0
    4.8285   -1.2718   -0.0933 H   0  0  0  0  0  0  0  0  0  0  0  0
    4.3189   -0.1916   -1.4041 H   0  0  0  0  0  0  0  0  0  0  0  0
   -0.3554    1.1969   -0.9693 H   0  0  0  0  0  0  0  0  0  0  0  0
   -2.5702    2.1031   -1.0434 H   0  0  0  0  0  0  0  0  0  0  0  0
   -1.7276   -1.7055    0.8132 H   0  0  0  0  0  0  0  0  0  0  0  0
   -4.9839    1.7205   -0.6987 H   0  0  0  0  0  0  0  0  0  0  0  0
   -4.1362   -2.0670    1.1449 H   0  0  0  0  0  0  0  0  0  0  0  0
   -5.7738   -0.3616    0.3943 H   0  0  0  0  0  0  0  0  0  0  0  0
  1  3  1  0  0  0  0
  1  6  1  0  0  0  0
  2  9  2  0  0  0  0
  3 10  1  0  0  0  0
  3 25  1  0  0  0  0
  4  5  1  0  0  0  0
  4  6  1  0  0  0  0
  4 16  1  0  0  0  0
  4 17  1  0  0  0  0
  5  7  1  0  0  0  0
  5 18  1  0  0  0  0
  5 19  1  0  0  0  0
  6  9  1  0  0  0  0
  6 20  1  0  0  0  0
  7  8  1  0  0  0  0
  7 21  1  0  0  0  0
  7 22  1  0  0  0  0
  8  9  1  0  0  0  0
  8 23  1  0  0  0  0
  8 24  1  0  0  0  0
 10 11  2  0  0  0  0
 10 12  1  0  0  0  0
 11 13  1  0  0  0  0
 11 26  1  0  0  0  0
 12 14  2  0  0  0  0
 12 27  1  0  0  0  0
 13 15  2  0  0  0  0
 13 28  1  0  0  0  0
 14 15  1  0  0  0  0
 14 29  1  0  0  0  0
 15 30  1  0  0  0  0
M  END
> <PUBCHEM_COMPOUND_CID>
11608142

> <PUBCHEM_CONFORMER_RMSD>
0.6

> <PUBCHEM_CONFORMER_DIVERSEORDER>
2
27
8
15
5
14
22
11
16
3
26
23
1
12
17
6
9
7
25
20
21
13
18
19
10
24
4

> <PUBCHEM_MMFF94_PARTIAL_CHARGES>
18
1 -0.26
10 0.1
11 -0.15
12 -0.15
13 -0.15
14 -0.15
15 -0.15
2 -0.57
25 0.4
26 0.15
27 0.15
28 0.15
29 0.15
3 -0.52
30 0.15
6 0.34
8 0.06
9 0.45

> <PUBCHEM_EFFECTIVE_ROTOR_COUNT>
4

> <PUBCHEM_PHARMACOPHORE_FEATURES>
3
1 2 acceptor
6 10 11 12 13 14 15 rings
6 4 5 6 7 8 9 rings

> <PUBCHEM_HEAVY_ATOM_COUNT>
15

> <PUBCHEM_ATOM_DEF_STEREO_COUNT>
0

> <PUBCHEM_ATOM_UDEF_STEREO_COUNT>
1

> <PUBCHEM_BOND_DEF_STEREO_COUNT>
0

> <PUBCHEM_BOND_UDEF_STEREO_COUNT>
0

> <PUBCHEM_ISOTOPIC_ATOM_COUNT>
0

> <PUBCHEM_COMPONENT_COUNT>
1

> <PUBCHEM_CACTVS_TAUTO_COUNT>
3

> <PUBCHEM_CONFORMER_ID>
00B1204E00000002

> <PUBCHEM_MMFF94_ENERGY>
33.5609

> <PUBCHEM_FEATURE_SELFOVERLAP>
15.223

> <PUBCHEM_SHAPE_FINGERPRINT>
10608611 8 18409164398555237653
11471102 20 18344144791669020924
11615757 297 17703793634498753449
12500047 106 18334010592742731871
12507560 40 18410573981030719733
13296908 3 18408041810183912909
13675066 3 18187088360281880723
15219456 202 18410573993762497741
15375358 24 18334857229422739843
17834072 33 18059570330244693015
17834074 16 18409731767934859547
18186145 218 18271816700057950059
200 152 17918269857729069005
20279233 1 18335424573175080227
20645477 56 18186801340771780261
20645477 70 18202282463863067182
21065198 57 18409449172087638217
21065199 12 18409167714354132897
21065201 7 17749105569573215307
22485316 2 18411136935426866231
22854114 59 18341613741191591024
22943178 12 18335417946066857887
23048698 100 17703794721025297994
23402539 116 17603859018249723957
23402655 69 18202001031967774428
23557571 272 17749103366302868413
23559900 14 18335980878829801966
26918003 58 18411979161032932601
33824 294 18410855456313625778
3545911 37 18409450284500128605
42 15 18334013891034729749
4214541 1 18409167684400313365
449060 50 18410855494567287893
5104073 3 18336266752074551163
573450 72 17240471503554655601
69090 78 18412542137194312719
77779 3 18410294709409077061
9709674 26 18335708264423987667

> <PUBCHEM_SHAPE_MULTIPOLES>
291.97
10.26
1.64
0.77
2.73
0.21
0.03
-0.53
0.73
-0.82
0.05
0.05
-0.04
1.03

> <PUBCHEM_SHAPE_SELFOVERLAP>
605.822

> <PUBCHEM_SHAPE_VOLUME>
164.8

> <PUBCHEM_COORDINATE_TYPE>
2
5
10

$$$$
