592628
  -OEChem-08222016493D

 34 34  0     1  0  0  0  0  0999 V2000
    0.8999   -2.1154   -0.4101 O   0  0  0  0  0  0  0  0  0  0  0  0
   -1.3892   -1.1425    0.9151 O   0  0  0  0  0  0  0  0  0  0  0  0
    0.7564    0.2910   -0.7068 C   0  0  2  0  0  0  0  0  0  0  0  0
    1.9336    1.2651   -0.9205 C   0  0  0  0  0  0  0  0  0  0  0  0
    2.8007    1.4621    0.3225 C   0  0  0  0  0  0  0  0  0  0  0  0
   -0.3223    0.9004    0.2005 C   0  0  0  0  0  0  0  0  0  0  0  0
    1.2761   -0.9980   -0.0537 C   0  0  0  0  0  0  0  0  0  0  0  0
    3.3296    0.1261    0.8311 C   0  0  0  0  0  0  0  0  0  0  0  0
    2.2015   -0.8456    1.1370 C   0  0  0  0  0  0  0  0  0  0  0  0
    0.1275   -0.0293   -2.0733 C   0  0  0  0  0  0  0  0  0  0  0  0
   -1.4990   -0.0341    0.3906 C   0  0  0  0  0  0  0  0  0  0  0  0
   -2.8491    0.4989   -0.0852 C   0  0  0  0  0  0  0  0  0  0  0  0
   -3.5315    1.2570    1.0472 C   0  0  0  0  0  0  0  0  0  0  0  0
   -3.7342   -0.6357   -0.5944 C   0  0  0  0  0  0  0  0  0  0  0  0
    1.5609    2.2405   -1.2575 H   0  0  0  0  0  0  0  0  0  0  0  0
    2.5799    0.8868   -1.7245 H   0  0  0  0  0  0  0  0  0  0  0  0
    2.2303    1.9657    1.1110 H   0  0  0  0  0  0  0  0  0  0  0  0
    3.6442    2.1175    0.0764 H   0  0  0  0  0  0  0  0  0  0  0  0
    0.0573    1.1277    1.2031 H   0  0  0  0  0  0  0  0  0  0  0  0
   -0.6715    1.8534   -0.2142 H   0  0  0  0  0  0  0  0  0  0  0  0
    3.9333    0.2856    1.7314 H   0  0  0  0  0  0  0  0  0  0  0  0
    3.9927   -0.3104    0.0735 H   0  0  0  0  0  0  0  0  0  0  0  0
    1.6121   -0.5077    1.9954 H   0  0  0  0  0  0  0  0  0  0  0  0
    2.6203   -1.8265    1.3867 H   0  0  0  0  0  0  0  0  0  0  0  0
   -0.2841    0.8724   -2.5408 H   0  0  0  0  0  0  0  0  0  0  0  0
    0.8758   -0.4462   -2.7580 H   0  0  0  0  0  0  0  0  0  0  0  0
   -0.6757   -0.7708   -2.0067 H   0  0  0  0  0  0  0  0  0  0  0  0
   -2.6746    1.1789   -0.9272 H   0  0  0  0  0  0  0  0  0  0  0  0
   -2.9057    2.0866    1.3936 H   0  0  0  0  0  0  0  0  0  0  0  0
   -3.7159    0.6045    1.9079 H   0  0  0  0  0  0  0  0  0  0  0  0
   -4.4907    1.6705    0.7193 H   0  0  0  0  0  0  0  0  0  0  0  0
   -3.2283   -1.1977   -1.3869 H   0  0  0  0  0  0  0  0  0  0  0  0
   -3.9818   -1.3426    0.2053 H   0  0  0  0  0  0  0  0  0  0  0  0
   -4.6720   -0.2440   -1.0020 H   0  0  0  0  0  0  0  0  0  0  0  0
  1  7  2  0  0  0  0
  2 11  2  0  0  0  0
  3  4  1  0  0  0  0
  3  6  1  0  0  0  0
  3  7  1  0  0  0  0
  3 10  1  0  0  0  0
  4  5  1  0  0  0  0
  4 15  1  0  0  0  0
  4 16  1  0  0  0  0
  5  8  1  0  0  0  0
  5 17  1  0  0  0  0
  5 18  1  0  0  0  0
  6 11  1  0  0  0  0
  6 19  1  0  0  0  0
  6 20  1  0  0  0  0
  7  9  1  0  0  0  0
  8  9  1  0  0  0  0
  8 21  1  0  0  0  0
  8 22  1  0  0  0  0
  9 23  1  0  0  0  0
  9 24  1  0  0  0  0
 10 25  1  0  0  0  0
 10 26  1  0  0  0  0
 10 27  1  0  0  0  0
 11 12  1  0  0  0  0
 12 13  1  0  0  0  0
 12 14  1  0  0  0  0
 12 28  1  0  0  0  0
 13 29  1  0  0  0  0
 13 30  1  0  0  0  0
 13 31  1  0  0  0  0
 14 32  1  0  0  0  0
 14 33  1  0  0  0  0
 14 34  1  0  0  0  0
M  END
> <PUBCHEM_COMPOUND_CID>
592628

> <PUBCHEM_CONFORMER_RMSD>
0.6

> <PUBCHEM_CONFORMER_DIVERSEORDER>
18
50
1
58
11
56
20
12
26
54
10
36
29
16
33
35
46
39
41
27
22
32
13
57
31
47
19
45
7
38
21
34
4
8
24
48
40
30
3
53
37
6
2
5
52
51
55
28
49
14
9
17
42
23
59
25
43
15
44

> <PUBCHEM_MMFF94_PARTIAL_CHARGES>
8
1 -0.57
11 0.45
12 0.06
2 -0.57
3 0.06
6 0.06
7 0.45
9 0.06

> <PUBCHEM_EFFECTIVE_ROTOR_COUNT>
4

> <PUBCHEM_PHARMACOPHORE_FEATURES>
4
1 1 acceptor
1 2 acceptor
3 12 13 14 hydrophobe
6 3 4 5 7 8 9 rings

> <PUBCHEM_HEAVY_ATOM_COUNT>
14

> <PUBCHEM_ATOM_DEF_STEREO_COUNT>
0

> <PUBCHEM_ATOM_UDEF_STEREO_COUNT>
1

> <PUBCHEM_BOND_DEF_STEREO_COUNT>
0

> <PUBCHEM_BOND_UDEF_STEREO_COUNT>
0

> <PUBCHEM_ISOTOPIC_ATOM_COUNT>
0

> <PUBCHEM_COMPONENT_COUNT>
1

> <PUBCHEM_CACTVS_TAUTO_COUNT>
6

> <PUBCHEM_CONFORMER_ID>
00090AF400000012

> <PUBCHEM_MMFF94_ENERGY>
24.9583

> <PUBCHEM_FEATURE_SELFOVERLAP>
20.301

> <PUBCHEM_SHAPE_FINGERPRINT>
10219947 1 17749104508700624700
12138202 97 15123215702297972260
12162725 195 18412261740085380521
12251169 10 17967810565720862072
12382932 28 18260553337445280097
124424 183 15430305945529219461
12932764 1 18340219487855341133
13380535 76 18335138725921857275
13571099 22 16588018000754839275
13581323 91 17240770605077032009
14344429 50 14490480806428378820
14817 1 10479748772721396510
15501101 241 17894628128353825020
15775835 57 17489580173621278880
15852999 172 18114178678944790211
16945 1 17749106699181392420
18186145 218 18335144137896888397
20715346 28 16298108704870951037
22802520 49 12319163087975660558
23402539 116 18270951440969348765
23557571 272 17418094300218849361
276578 36 17918274242595376494
3248919 1 18260276252273162425
57812782 119 16660639661590789561
7364860 26 17986962851243327214
74978 22 10953745525462887843
81228 2 15575821803781189557

> <PUBCHEM_SHAPE_MULTIPOLES>
276.37
5.71
1.55
1.36
3.44
0.25
-0.47
-1.2
1.49
-0.38
0.09
-0.13
0
-0.55

> <PUBCHEM_SHAPE_SELFOVERLAP>
550.312

> <PUBCHEM_SHAPE_VOLUME>
163.4

> <PUBCHEM_COORDINATE_TYPE>
2
5
10

$$$$
