606866
  -OEChem-08222016523D

 37 37  0     0  0  0  0  0  0999 V2000
    5.1924   -0.1433    0.3120 O   0  0  0  0  0  0  0  0  0  0  0  0
    3.8259    0.1076   -1.4867 O   0  0  0  0  0  0  0  0  0  0  0  0
   -1.6821   -1.1626    0.0404 C   0  0  0  0  0  0  0  0  0  0  0  0
   -2.8707   -0.9603   -0.9364 C   0  0  0  0  0  0  0  0  0  0  0  0
   -0.9999    0.1767    0.3886 C   0  0  0  0  0  0  0  0  0  0  0  0
   -3.7595    0.2008   -0.5221 C   0  0  0  0  0  0  0  0  0  0  0  0
   -1.5785    1.3714    0.1125 C   0  0  0  0  0  0  0  0  0  0  0  0
   -2.9580    1.4947   -0.4973 C   0  0  0  0  0  0  0  0  0  0  0  0
    0.3485    0.0771    1.0678 C   0  0  0  0  0  0  0  0  0  0  0  0
   -0.6982   -2.1321   -0.6509 C   0  0  0  0  0  0  0  0  0  0  0  0
   -2.1986   -1.8292    1.3348 C   0  0  0  0  0  0  0  0  0  0  0  0
    1.4792    0.0986    0.0477 C   0  0  0  0  0  0  0  0  0  0  0  0
   -0.9256    2.7107    0.3488 C   0  0  0  0  0  0  0  0  0  0  0  0
    2.8462   -0.0039    0.7184 C   0  0  0  0  0  0  0  0  0  0  0  0
    3.9787   -0.0063   -0.2776 C   0  0  0  0  0  0  0  0  0  0  0  0
   -3.4730   -1.8751   -1.0028 H   0  0  0  0  0  0  0  0  0  0  0  0
   -2.4950   -0.7666   -1.9508 H   0  0  0  0  0  0  0  0  0  0  0  0
   -4.2009    0.0134    0.4634 H   0  0  0  0  0  0  0  0  0  0  0  0
   -4.5962    0.3013   -1.2232 H   0  0  0  0  0  0  0  0  0  0  0  0
   -3.5389    2.2478    0.0492 H   0  0  0  0  0  0  0  0  0  0  0  0
   -2.8448    1.8648   -1.5246 H   0  0  0  0  0  0  0  0  0  0  0  0
    0.4103   -0.8335    1.6738 H   0  0  0  0  0  0  0  0  0  0  0  0
    0.4778    0.8877    1.7949 H   0  0  0  0  0  0  0  0  0  0  0  0
   -0.2918   -1.7047   -1.5740 H   0  0  0  0  0  0  0  0  0  0  0  0
    0.1266   -2.4361    0.0014 H   0  0  0  0  0  0  0  0  0  0  0  0
   -1.2155   -3.0572   -0.9357 H   0  0  0  0  0  0  0  0  0  0  0  0
   -1.3778   -2.1387    1.9909 H   0  0  0  0  0  0  0  0  0  0  0  0
   -2.8389   -1.1546    1.9134 H   0  0  0  0  0  0  0  0  0  0  0  0
   -2.7819   -2.7294    1.1088 H   0  0  0  0  0  0  0  0  0  0  0  0
    1.4401    1.0277   -0.5356 H   0  0  0  0  0  0  0  0  0  0  0  0
    1.3992   -0.7080   -0.6830 H   0  0  0  0  0  0  0  0  0  0  0  0
   -0.9488    3.3040   -0.5721 H   0  0  0  0  0  0  0  0  0  0  0  0
    0.1202    2.6552    0.6559 H   0  0  0  0  0  0  0  0  0  0  0  0
   -1.4707    3.2600    1.1237 H   0  0  0  0  0  0  0  0  0  0  0  0
    2.9928    0.8448    1.3957 H   0  0  0  0  0  0  0  0  0  0  0  0
    2.9044   -0.9336    1.2955 H   0  0  0  0  0  0  0  0  0  0  0  0
    5.9210   -0.1410   -0.3449 H   0  0  0  0  0  0  0  0  0  0  0  0
  1 15  1  0  0  0  0
  1 37  1  0  0  0  0
  2 15  2  0  0  0  0
  3  4  1  0  0  0  0
  3  5  1  0  0  0  0
  3 10  1  0  0  0  0
  3 11  1  0  0  0  0
  4  6  1  0  0  0  0
  4 16  1  0  0  0  0
  4 17  1  0  0  0  0
  5  7  2  0  0  0  0
  5  9  1  0  0  0  0
  6  8  1  0  0  0  0
  6 18  1  0  0  0  0
  6 19  1  0  0  0  0
  7  8  1  0  0  0  0
  7 13  1  0  0  0  0
  8 20  1  0  0  0  0
  8 21  1  0  0  0  0
  9 12  1  0  0  0  0
  9 22  1  0  0  0  0
  9 23  1  0  0  0  0
 10 24  1  0  0  0  0
 10 25  1  0  0  0  0
 10 26  1  0  0  0  0
 11 27  1  0  0  0  0
 11 28  1  0  0  0  0
 11 29  1  0  0  0  0
 12 14  1  0  0  0  0
 12 30  1  0  0  0  0
 12 31  1  0  0  0  0
 13 32  1  0  0  0  0
 13 33  1  0  0  0  0
 13 34  1  0  0  0  0
 14 15  1  0  0  0  0
 14 35  1  0  0  0  0
 14 36  1  0  0  0  0
M  END
> <PUBCHEM_COMPOUND_CID>
606866

> <PUBCHEM_CONFORMER_RMSD>
0.6

> <PUBCHEM_CONFORMER_DIVERSEORDER>
2
17
7
20
5
15
3
13
10
16
9
11
14
12
1
8
18
4
6
19

> <PUBCHEM_MMFF94_PARTIAL_CHARGES>
11
1 -0.65
13 0.14
14 0.06
15 0.66
2 -0.57
3 0.14
37 0.5
5 -0.28
7 -0.28
8 0.14
9 0.14

> <PUBCHEM_EFFECTIVE_ROTOR_COUNT>
4.8

> <PUBCHEM_PHARMACOPHORE_FEATURES>
5
1 1 acceptor
1 2 acceptor
3 1 2 15 anion
3 3 10 11 hydrophobe
6 3 4 5 6 7 8 rings

> <PUBCHEM_HEAVY_ATOM_COUNT>
15

> <PUBCHEM_ATOM_DEF_STEREO_COUNT>
0

> <PUBCHEM_ATOM_UDEF_STEREO_COUNT>
0

> <PUBCHEM_BOND_DEF_STEREO_COUNT>
0

> <PUBCHEM_BOND_UDEF_STEREO_COUNT>
0

> <PUBCHEM_ISOTOPIC_ATOM_COUNT>
0

> <PUBCHEM_COMPONENT_COUNT>
1

> <PUBCHEM_CACTVS_TAUTO_COUNT>
1

> <PUBCHEM_CONFORMER_ID>
0009429200000002

> <PUBCHEM_MMFF94_ENERGY>
23.1709

> <PUBCHEM_FEATURE_SELFOVERLAP>
25.429

> <PUBCHEM_SHAPE_FINGERPRINT>
11680986 33 18121491629887149065
12186901 62 18334299759931886695
13024252 1 18186518809063965195
15163728 17 17243291609335820117
15375358 24 17918267662990270178
16945 1 17968640701648124185
17870717 6 18059026007701532910
187816 3 18409158909919082925
20279233 1 17847062186242838870
20300324 65 18412541011654249336
20325693 3 18340217327291326726
20645476 183 17894341177330923691
20645477 56 18412265008687523968
20645477 70 16988567841113579262
20871999 31 18336816546706934405
21339142 51 18335418010633746547
21637258 2 15194982982659210773
2306618 200 18060424598802017843
23402539 116 18342164549246300933
23493267 7 18259701198817305163
23557571 272 18202002114785206608
23559900 14 18201148889587910768
23598291 2 17752756940763543154
2748010 2 18195794396345644697
4175511 318 18187079542381680461
559249 180 18192140500527450266
58051976 100 18333734594229099374
81228 2 18341054029601813536
9709674 26 18342179925704201558

> <PUBCHEM_SHAPE_MULTIPOLES>
296.95
7.48
2.11
1.11
10.74
0.53
0.01
-0.08
-1.66
-1.99
0.16
0.06
-0.28
0.2

> <PUBCHEM_SHAPE_SELFOVERLAP>
587.399

> <PUBCHEM_SHAPE_VOLUME>
176.4

> <PUBCHEM_COORDINATE_TYPE>
2
5
10

$$$$
