11208660
  -OEChem-11202011053D

 43 45  0     0  0  0  0  0  0999 V2000
    3.5408    1.1013   -0.3591 O   0  0  0  0  0  0  0  0  0  0  0  0
   -5.4029   -0.8613    0.0126 O   0  0  0  0  0  0  0  0  0  0  0  0
   -1.7213    2.2814    0.6364 N   0  0  0  0  0  0  0  0  0  0  0  0
   -0.1151    0.8779   -0.0138 C   0  0  0  0  0  0  0  0  0  0  0  0
   -1.3747    0.2031   -0.0934 C   0  0  0  0  0  0  0  0  0  0  0  0
   -0.3643    2.1717    0.4445 C   0  0  0  0  0  0  0  0  0  0  0  0
    1.2171    0.5052   -0.2904 C   0  0  0  0  0  0  0  0  0  0  0  0
   -2.3568    1.1043    0.3181 C   0  0  0  0  0  0  0  0  0  0  0  0
    1.5783   -0.8618   -0.7858 C   0  0  0  0  0  0  0  0  0  0  0  0
   -1.7697   -1.0952   -0.4791 C   0  0  0  0  0  0  0  0  0  0  0  0
    2.2439    1.4367   -0.0992 C   0  0  0  0  0  0  0  0  0  0  0  0
    0.6518    3.1141    0.6408 C   0  0  0  0  0  0  0  0  0  0  0  0
   -3.7161    0.7743    0.3636 C   0  0  0  0  0  0  0  0  0  0  0  0
   -3.1254   -1.4402   -0.4387 C   0  0  0  0  0  0  0  0  0  0  0  0
    1.9631    2.7212    0.3598 C   0  0  0  0  0  0  0  0  0  0  0  0
   -4.0825   -0.5176   -0.0234 C   0  0  0  0  0  0  0  0  0  0  0  0
    1.8690   -1.8281    0.3330 C   0  0  0  0  0  0  0  0  0  0  0  0
   -3.5292   -2.8187   -0.8510 C   0  0  0  0  0  0  0  0  0  0  0  0
    3.0193   -2.4809    0.5873 C   0  0  0  0  0  0  0  0  0  0  0  0
    3.2420   -3.4351    1.7261 C   0  0  0  0  0  0  0  0  0  0  0  0
    4.2156   -2.2927   -0.3076 C   0  0  0  0  0  0  0  0  0  0  0  0
    4.0173    1.3402   -1.6809 C   0  0  0  0  0  0  0  0  0  0  0  0
   -2.1886    3.1146    0.9665 H   0  0  0  0  0  0  0  0  0  0  0  0
    0.7810   -1.2671   -1.4117 H   0  0  0  0  0  0  0  0  0  0  0  0
    2.4022   -0.7912   -1.4968 H   0  0  0  0  0  0  0  0  0  0  0  0
   -1.0497   -1.8421   -0.7898 H   0  0  0  0  0  0  0  0  0  0  0  0
    0.4337    4.1149    0.9984 H   0  0  0  0  0  0  0  0  0  0  0  0
   -4.4530    1.5017    0.6891 H   0  0  0  0  0  0  0  0  0  0  0  0
    2.7701    3.4358    0.5053 H   0  0  0  0  0  0  0  0  0  0  0  0
    1.0328   -2.0158    1.0061 H   0  0  0  0  0  0  0  0  0  0  0  0
   -4.2156   -2.7745   -1.7032 H   0  0  0  0  0  0  0  0  0  0  0  0
   -2.6697   -3.4268   -1.1529 H   0  0  0  0  0  0  0  0  0  0  0  0
   -4.0210   -3.3349   -0.0198 H   0  0  0  0  0  0  0  0  0  0  0  0
   -5.9213   -0.0997    0.3243 H   0  0  0  0  0  0  0  0  0  0  0  0
    2.3533   -3.5185    2.3603 H   0  0  0  0  0  0  0  0  0  0  0  0
    3.4782   -4.4351    1.3485 H   0  0  0  0  0  0  0  0  0  0  0  0
    4.0699   -3.0914    2.3545 H   0  0  0  0  0  0  0  0  0  0  0  0
    3.9657   -2.0579   -1.3440 H   0  0  0  0  0  0  0  0  0  0  0  0
    4.8668   -1.5092    0.0924 H   0  0  0  0  0  0  0  0  0  0  0  0
    4.8002   -3.2192   -0.3536 H   0  0  0  0  0  0  0  0  0  0  0  0
    4.3345    2.3839   -1.7694 H   0  0  0  0  0  0  0  0  0  0  0  0
    3.2582    1.1250   -2.4401 H   0  0  0  0  0  0  0  0  0  0  0  0
    4.8831    0.6959   -1.8563 H   0  0  0  0  0  0  0  0  0  0  0  0
  1 11  1  0  0  0  0
  1 22  1  0  0  0  0
  2 16  1  0  0  0  0
  2 34  1  0  0  0  0
  3  6  1  0  0  0  0
  3  8  1  0  0  0  0
  3 23  1  0  0  0  0
  4  5  1  0  0  0  0
  4  6  2  0  0  0  0
  4  7  1  0  0  0  0
  5  8  2  0  0  0  0
  5 10  1  0  0  0  0
  6 12  1  0  0  0  0
  7  9  1  0  0  0  0
  7 11  2  0  0  0  0
  8 13  1  0  0  0  0
  9 17  1  0  0  0  0
  9 24  1  0  0  0  0
  9 25  1  0  0  0  0
 10 14  2  0  0  0  0
 10 26  1  0  0  0  0
 11 15  1  0  0  0  0
 12 15  2  0  0  0  0
 12 27  1  0  0  0  0
 13 16  2  0  0  0  0
 13 28  1  0  0  0  0
 14 16  1  0  0  0  0
 14 18  1  0  0  0  0
 15 29  1  0  0  0  0
 17 19  2  0  0  0  0
 17 30  1  0  0  0  0
 18 31  1  0  0  0  0
 18 32  1  0  0  0  0
 18 33  1  0  0  0  0
 19 20  1  0  0  0  0
 19 21  1  0  0  0  0
 20 35  1  0  0  0  0
 20 36  1  0  0  0  0
 20 37  1  0  0  0  0
 21 38  1  0  0  0  0
 21 39  1  0  0  0  0
 21 40  1  0  0  0  0
 22 41  1  0  0  0  0
 22 42  1  0  0  0  0
 22 43  1  0  0  0  0
M  END
> <PUBCHEM_COMPOUND_CID>
11208660

> <PUBCHEM_CONFORMER_RMSD>
0.6

> <PUBCHEM_CONFORMER_DIVERSEORDER>
1
4
13
11
14
12
10
9
7
2
8
3
5
6

> <PUBCHEM_MMFF94_PARTIAL_CHARGES>
27
1 -0.36
10 -0.15
11 0.08
12 -0.15
13 -0.15
14 -0.14
15 -0.15
16 0.08
17 -0.29
18 0.14
19 -0.28
2 -0.53
20 0.14
21 0.14
22 0.28
23 0.27
26 0.15
27 0.15
28 0.15
29 0.15
3 0.03
30 0.15
34 0.45
6 -0.15
7 -0.14
8 -0.15
9 0.28

> <PUBCHEM_EFFECTIVE_ROTOR_COUNT>
3

> <PUBCHEM_PHARMACOPHORE_FEATURES>
8
1 1 acceptor
1 2 donor
1 3 cation
1 3 donor
3 19 20 21 hydrophobe
5 3 4 5 6 8 rings
6 4 6 7 11 12 15 rings
6 5 8 10 13 14 16 rings

> <PUBCHEM_HEAVY_ATOM_COUNT>
22

> <PUBCHEM_ATOM_DEF_STEREO_COUNT>
0

> <PUBCHEM_ATOM_UDEF_STEREO_COUNT>
0

> <PUBCHEM_BOND_DEF_STEREO_COUNT>
0

> <PUBCHEM_BOND_UDEF_STEREO_COUNT>
0

> <PUBCHEM_ISOTOPIC_ATOM_COUNT>
0

> <PUBCHEM_COMPONENT_COUNT>
1

> <PUBCHEM_CACTVS_TAUTO_COUNT>
9

> <PUBCHEM_CONFORMER_ID>
00AB07D400000001

> <PUBCHEM_MMFF94_ENERGY>
60.9733

> <PUBCHEM_FEATURE_SELFOVERLAP>
40.775

> <PUBCHEM_SHAPE_FINGERPRINT>
10616163 171 18199753712005601639
10967382 1 18342177829622763989
1100329 8 18122907530011727153
11578080 2 17823124645269244396
11725454 13 14347799442256836062
12553582 1 18268143167306744190
12633257 1 18199196083595423689
12788726 201 17988093205437496465
13004483 165 17829878846382528594
13140716 1 18197496212316685897
13533116 47 18408038537904688819
138480 1 18412260644784356424
14790565 3 17839484197322874009
14844126 61 17831845859657657402
15042514 8 17834956373646540675
15099037 8 18336827468486813194
15375462 189 18411708689889041233
15442244 35 18341896260235816201
15537594 2 18340220694704344903
16945 1 18341609338956244249
1813 80 17677607571630894946
19591789 44 17908423906663458559
20291156 8 18337669690077876682
20600515 1 17693370045778012064
20645477 70 17986676068130014229
20905425 154 18343025471578372468
21267235 1 18128270063153131349
21421861 104 18408039610944471041
21634736 98 18335425608568432978
21650355 55 17979906116986208152
221490 88 17982178017262929045
2255824 54 18191866953522472988
23184049 29 18340204064353195164
23366157 5 18334576883927690309
23559900 14 18342168943002898344
25147074 1 18267880405518139113
2871803 45 18125435569336923719
335352 9 18272658995328239133
34934 24 18271805774072683741
352729 6 17838061399042474569
43471831 8 18051965106814842513
463206 1 18337674212736637066
5104073 3 18342745105114421555
7097593 13 18412259519392005659
7364860 26 18341609356103841368
9709674 26 18338237192897241043

> <PUBCHEM_SHAPE_MULTIPOLES>
436.03
8.43
4.03
1.06
3.95
0.7
-0.02
5.29
-0.89
-2.94
1.12
-0.92
0.32
-2.06

> <PUBCHEM_SHAPE_SELFOVERLAP>
951.005

> <PUBCHEM_SHAPE_VOLUME>
241.1

> <PUBCHEM_COORDINATE_TYPE>
2
5
10

$$$$
