101992958
  -OEChem-11202011203D

 84 87  0     1  0  0  0  0  0999 V2000
    6.3289   -1.1183   -1.3580 O   0  0  0  0  0  0  0  0  0  0  0  0
   -0.1099    0.9686   -0.7527 C   0  0  2  0  0  0  0  0  0  0  0  0
   -0.9805   -0.2705   -0.3428 C   0  0  1  0  0  0  0  0  0  0  0  0
    1.2386    0.9298    0.0381 C   0  0  1  0  0  0  0  0  0  0  0  0
   -2.3440    0.0747   -0.9923 C   0  0  2  0  0  0  0  0  0  0  0  0
    3.3150   -0.5920    0.5974 C   0  0  2  0  0  0  0  0  0  0  0  0
    1.8861   -0.4760   -0.0164 C   0  0  0  0  0  0  0  0  0  0  0  0
   -1.0625    2.1274   -0.4126 C   0  0  0  0  0  0  0  0  0  0  0  0
    4.2093    0.5708    0.0243 C   0  0  1  0  0  0  0  0  0  0  0  0
   -2.4695    1.6038   -0.7765 C   0  0  0  0  0  0  0  0  0  0  0  0
   -0.2780   -1.5302   -0.8713 C   0  0  0  0  0  0  0  0  0  0  0  0
    2.2098    2.0392   -0.4004 C   0  0  0  0  0  0  0  0  0  0  0  0
    3.5679    1.9494    0.2882 C   0  0  0  0  0  0  0  0  0  0  0  0
    5.7479    0.5138    0.3659 C   0  0  0  0  0  0  0  0  0  0  0  0
    0.1741    1.0465   -2.2914 C   0  0  0  0  0  0  0  0  0  0  0  0
    1.1847   -1.5439   -0.4728 C   0  0  0  0  0  0  0  0  0  0  0  0
    4.0037   -1.9484    0.2689 C   0  0  0  0  0  0  0  0  0  0  0  0
   -3.5661   -0.6893   -0.4952 C   0  0  1  0  0  0  0  0  0  0  0  0
   -1.1748   -0.4328    1.1997 C   0  0  0  0  0  0  0  0  0  0  0  0
    6.3017   -0.9065    0.0577 C   0  0  1  0  0  0  0  0  0  0  0  0
    5.4737   -2.0228    0.6872 C   0  0  0  0  0  0  0  0  0  0  0  0
    3.0908   -0.5376    2.1310 C   0  0  0  0  0  0  0  0  0  0  0  0
    6.5159    1.5302   -0.5267 C   0  0  0  0  0  0  0  0  0  0  0  0
    6.0781    0.8981    1.8227 C   0  0  0  0  0  0  0  0  0  0  0  0
   -4.8307   -0.1894   -1.2244 C   0  0  0  0  0  0  0  0  0  0  0  0
   -3.3523   -2.1947   -0.6771 C   0  0  0  0  0  0  0  0  0  0  0  0
   -6.1452   -0.8943   -0.8572 C   0  0  0  0  0  0  0  0  0  0  0  0
   -6.5861   -0.7566    0.6160 C   0  0  2  0  0  0  0  0  0  0  0  0
   -7.8722   -1.5629    0.8391 C   0  0  0  0  0  0  0  0  0  0  0  0
   -6.7597    0.6848    1.0757 C   0  0  0  0  0  0  0  0  0  0  0  0
   -7.7619    1.5515    0.3636 C   0  0  0  0  0  0  0  0  0  0  0  0
   -6.0328    1.1775    2.0923 C   0  0  0  0  0  0  0  0  0  0  0  0
    1.0166    1.1335    1.0941 H   0  0  0  0  0  0  0  0  0  0  0  0
   -2.2798   -0.1097   -2.0724 H   0  0  0  0  0  0  0  0  0  0  0  0
   -0.8305    3.0509   -0.9538 H   0  0  0  0  0  0  0  0  0  0  0  0
   -1.0237    2.3718    0.6554 H   0  0  0  0  0  0  0  0  0  0  0  0
    4.1700    0.4395   -1.0706 H   0  0  0  0  0  0  0  0  0  0  0  0
   -2.8327    2.0865   -1.6910 H   0  0  0  0  0  0  0  0  0  0  0  0
   -3.1641    1.8600    0.0315 H   0  0  0  0  0  0  0  0  0  0  0  0
   -0.3529   -1.6162   -1.9611 H   0  0  0  0  0  0  0  0  0  0  0  0
   -0.7137   -2.4422   -0.4580 H   0  0  0  0  0  0  0  0  0  0  0  0
    1.7665    3.0210   -0.1953 H   0  0  0  0  0  0  0  0  0  0  0  0
    2.3984    1.9977   -1.4785 H   0  0  0  0  0  0  0  0  0  0  0  0
    4.1889    2.7551   -0.1146 H   0  0  0  0  0  0  0  0  0  0  0  0
    3.4614    2.1497    1.3585 H   0  0  0  0  0  0  0  0  0  0  0  0
    0.9167    0.3109   -2.6158 H   0  0  0  0  0  0  0  0  0  0  0  0
    0.5538    2.0364   -2.5697 H   0  0  0  0  0  0  0  0  0  0  0  0
   -0.7148    0.8979   -2.9088 H   0  0  0  0  0  0  0  0  0  0  0  0
    1.6359   -2.5303   -0.5048 H   0  0  0  0  0  0  0  0  0  0  0  0
    3.9455   -2.1394   -0.8112 H   0  0  0  0  0  0  0  0  0  0  0  0
    3.4753   -2.7758    0.7605 H   0  0  0  0  0  0  0  0  0  0  0  0
   -3.7171   -0.4963    0.5725 H   0  0  0  0  0  0  0  0  0  0  0  0
   -1.6958    0.4216    1.6437 H   0  0  0  0  0  0  0  0  0  0  0  0
   -1.7500   -1.3259    1.4562 H   0  0  0  0  0  0  0  0  0  0  0  0
   -0.2309   -0.5399    1.7409 H   0  0  0  0  0  0  0  0  0  0  0  0
    7.3389   -0.9848    0.4061 H   0  0  0  0  0  0  0  0  0  0  0  0
    5.5678   -2.0037    1.7770 H   0  0  0  0  0  0  0  0  0  0  0  0
    5.8661   -2.9947    0.3621 H   0  0  0  0  0  0  0  0  0  0  0  0
    3.9752   -0.8098    2.7060 H   0  0  0  0  0  0  0  0  0  0  0  0
    2.3155   -1.2540    2.4337 H   0  0  0  0  0  0  0  0  0  0  0  0
    2.7636    0.4446    2.4822 H   0  0  0  0  0  0  0  0  0  0  0  0
    7.5982    1.3645   -0.4646 H   0  0  0  0  0  0  0  0  0  0  0  0
    6.3378    2.5647   -0.2154 H   0  0  0  0  0  0  0  0  0  0  0  0
    6.2282    1.4462   -1.5804 H   0  0  0  0  0  0  0  0  0  0  0  0
    7.1638    0.9753    1.9617 H   0  0  0  0  0  0  0  0  0  0  0  0
    5.7351    0.1666    2.5522 H   0  0  0  0  0  0  0  0  0  0  0  0
    5.6546    1.8704    2.0932 H   0  0  0  0  0  0  0  0  0  0  0  0
   -4.9634    0.8864   -1.0677 H   0  0  0  0  0  0  0  0  0  0  0  0
   -4.6844   -0.3159   -2.3058 H   0  0  0  0  0  0  0  0  0  0  0  0
   -3.0094   -2.4357   -1.6887 H   0  0  0  0  0  0  0  0  0  0  0  0
   -2.6545   -2.6101    0.0484 H   0  0  0  0  0  0  0  0  0  0  0  0
   -4.2726   -2.7585   -0.5045 H   0  0  0  0  0  0  0  0  0  0  0  0
   -6.0928   -1.9542   -1.1297 H   0  0  0  0  0  0  0  0  0  0  0  0
   -6.9308   -0.4835   -1.5061 H   0  0  0  0  0  0  0  0  0  0  0  0
    6.7285   -1.9904   -1.5171 H   0  0  0  0  0  0  0  0  0  0  0  0
   -5.8176   -1.2367    1.2364 H   0  0  0  0  0  0  0  0  0  0  0  0
   -8.2180   -1.4740    1.8749 H   0  0  0  0  0  0  0  0  0  0  0  0
   -8.6820   -1.2317    0.1803 H   0  0  0  0  0  0  0  0  0  0  0  0
   -7.6978   -2.6259    0.6388 H   0  0  0  0  0  0  0  0  0  0  0  0
   -7.5063    1.6541   -0.6951 H   0  0  0  0  0  0  0  0  0  0  0  0
   -7.8019    2.5617    0.7859 H   0  0  0  0  0  0  0  0  0  0  0  0
   -8.7677    1.1284    0.4422 H   0  0  0  0  0  0  0  0  0  0  0  0
   -5.3037    0.5672    2.6149 H   0  0  0  0  0  0  0  0  0  0  0  0
   -6.1475    2.2037    2.4254 H   0  0  0  0  0  0  0  0  0  0  0  0
  1 20  1  0  0  0  0
  1 75  1  0  0  0  0
  2  3  1  0  0  0  0
  2  4  1  0  0  0  0
  2  8  1  0  0  0  0
  2 15  1  0  0  0  0
  3  5  1  0  0  0  0
  3 11  1  0  0  0  0
  3 19  1  0  0  0  0
  4  7  1  0  0  0  0
  4 12  1  0  0  0  0
  4 33  1  0  0  0  0
  5 10  1  0  0  0  0
  5 18  1  0  0  0  0
  5 34  1  0  0  0  0
  6  7  1  0  0  0  0
  6  9  1  0  0  0  0
  6 17  1  0  0  0  0
  6 22  1  0  0  0  0
  7 16  2  0  0  0  0
  8 10  1  0  0  0  0
  8 35  1  0  0  0  0
  8 36  1  0  0  0  0
  9 13  1  0  0  0  0
  9 14  1  0  0  0  0
  9 37  1  0  0  0  0
 10 38  1  0  0  0  0
 10 39  1  0  0  0  0
 11 16  1  0  0  0  0
 11 40  1  0  0  0  0
 11 41  1  0  0  0  0
 12 13  1  0  0  0  0
 12 42  1  0  0  0  0
 12 43  1  0  0  0  0
 13 44  1  0  0  0  0
 13 45  1  0  0  0  0
 14 20  1  0  0  0  0
 14 23  1  0  0  0  0
 14 24  1  0  0  0  0
 15 46  1  0  0  0  0
 15 47  1  0  0  0  0
 15 48  1  0  0  0  0
 16 49  1  0  0  0  0
 17 21  1  0  0  0  0
 17 50  1  0  0  0  0
 17 51  1  0  0  0  0
 18 25  1  0  0  0  0
 18 26  1  0  0  0  0
 18 52  1  0  0  0  0
 19 53  1  0  0  0  0
 19 54  1  0  0  0  0
 19 55  1  0  0  0  0
 20 21  1  0  0  0  0
 20 56  1  0  0  0  0
 21 57  1  0  0  0  0
 21 58  1  0  0  0  0
 22 59  1  0  0  0  0
 22 60  1  0  0  0  0
 22 61  1  0  0  0  0
 23 62  1  0  0  0  0
 23 63  1  0  0  0  0
 23 65  1  0  0  0  0
 24 64  1  0  0  0  0
 24 66  1  0  0  0  0
 24 67  1  0  0  0  0
 25 27  1  0  0  0  0
 25 68  1  0  0  0  0
 25 69  1  0  0  0  0
 26 70  1  0  0  0  0
 26 71  1  0  0  0  0
 26 72  1  0  0  0  0
 27 28  1  0  0  0  0
 27 73  1  0  0  0  0
 27 74  1  0  0  0  0
 28 29  1  0  0  0  0
 28 30  1  0  0  0  0
 28 76  1  0  0  0  0
 29 77  1  0  0  0  0
 29 78  1  0  0  0  0
 29 79  1  0  0  0  0
 30 31  1  0  0  0  0
 30 32  2  0  0  0  0
 31 80  1  0  0  0  0
 31 81  1  0  0  0  0
 31 82  1  0  0  0  0
 32 83  1  0  0  0  0
 32 84  1  0  0  0  0
M  END
> <PUBCHEM_COMPOUND_CID>
101992958

> <PUBCHEM_CONFORMER_RMSD>
1

> <PUBCHEM_CONFORMER_DIVERSEORDER>
1
11
8
9
12
10
4
13
2
6
5
3
7

> <PUBCHEM_MMFF94_PARTIAL_CHARGES>
15
1 -0.68
11 0.14
16 -0.29
20 0.28
28 0.14
30 -0.28
31 0.14
32 -0.3
4 0.14
49 0.15
6 0.14
7 -0.28
75 0.4
83 0.15
84 0.15

> <PUBCHEM_EFFECTIVE_ROTOR_COUNT>
7

> <PUBCHEM_PHARMACOPHORE_FEATURES>
10
1 1 acceptor
1 1 donor
1 26 hydrophobe
1 29 hydrophobe
3 14 23 24 hydrophobe
5 18 25 27 28 30 hydrophobe
5 2 3 5 8 10 rings
6 2 3 4 7 11 16 rings
6 4 6 7 9 12 13 rings
6 6 9 14 17 20 21 rings

> <PUBCHEM_HEAVY_ATOM_COUNT>
32

> <PUBCHEM_ATOM_DEF_STEREO_COUNT>
9

> <PUBCHEM_ATOM_UDEF_STEREO_COUNT>
0

> <PUBCHEM_BOND_DEF_STEREO_COUNT>
0

> <PUBCHEM_BOND_UDEF_STEREO_COUNT>
0

> <PUBCHEM_ISOTOPIC_ATOM_COUNT>
0

> <PUBCHEM_COMPONENT_COUNT>
1

> <PUBCHEM_CACTVS_TAUTO_COUNT>
1

> <PUBCHEM_CONFORMER_ID>
061449FE00000001

> <PUBCHEM_MMFF94_ENERGY>
126.3062

> <PUBCHEM_FEATURE_SELFOVERLAP>
50.844

> <PUBCHEM_SHAPE_FINGERPRINT>
10 15 18273217491748305131
10076449 9 18041002821768032326
10299344 5 18342176674181570315
10906281 52 18337684090960834439
11181472 205 16199887102036693648
11456790 92 18201993318607373538
11719270 70 9151177545404366940
11991303 11 13686002246605524229
12236239 1 17632292397544553846
12422481 6 18410856526092395805
12516196 113 17967530181491641303
13533116 47 18412821400436542944
13685833 64 18040714775132779311
13782708 43 16878496826530091026
14251764 18 18342738537850923375
14341114 176 18410289207640321686
14849402 71 18340771562862489441
14856354 85 17632574998736327711
15021287 119 17822013138430286733
15131766 46 15336837669349678496
15142383 8 16128655237242096042
15183329 4 18412537722009870791
15352257 5 15864068767592204305
15461852 350 17060049360147248861
16112460 7 18411140233988312195
18608769 82 16732988652032701651
20105231 36 18260838089387650618
21033648 29 16629945712312063370
21130935 74 18272085011023961999
21150785 3 13407081400771425175
21267235 1 18408885123065772470
21521721 280 18040719186169531696
21859007 373 13614252438022760691
22149856 69 18409731729422871344
23522609 53 18268733716899637037
23559900 14 18264196066828968468
23569943 247 17969492706811380619
23576562 1 11167356462579518507
24771293 8 18056743537785473136
27425 322 14260480566796132734
2838139 119 11095887073150923707
3178227 256 18334859432703929067
34797466 226 18342179986250020684
350125 39 18413105060918942405
4073 2 18188211034331142050
4093350 32 17632579353553876478
465052 167 18334855013298872934
5028188 123 18060143193219978396
5104073 3 18338505332037181200
59755656 520 12535343489894794781
6004065 56 7997675498462843022
6086070 43 16917056794380183353
7226269 152 17561366171803531545

> <PUBCHEM_SHAPE_MULTIPOLES>
652.68
20.7
2.21
1.58
17.73
0.02
-0.3
-1.41
-6.59
-0.5
0.16
0.44
0.2
-0.62

> <PUBCHEM_SHAPE_SELFOVERLAP>
1356.17

> <PUBCHEM_SHAPE_VOLUME>
372.2

> <PUBCHEM_COORDINATE_TYPE>
2
5
10

$$$$
