10446329
  -OEChem-11202011163D

 38 41  0     0  0  0  0  0  0999 V2000
    3.6718    0.4228    0.0315 O   0  0  0  0  0  0  0  0  0  0  0  0
   -5.5688   -0.4422   -0.0109 O   0  0  0  0  0  0  0  0  0  0  0  0
   -1.5046    2.2390   -0.0068 N   0  0  0  0  0  0  0  0  0  0  0  0
   -0.0522    0.5301    0.0106 C   0  0  0  0  0  0  0  0  0  0  0  0
    3.9493   -0.9906   -0.0147 C   0  0  0  0  0  0  0  0  0  0  0  0
    1.2656   -0.0101    0.0228 C   0  0  0  0  0  0  0  0  0  0  0  0
   -1.4047    0.0117    0.0047 C   0  0  0  0  0  0  0  0  0  0  0  0
   -0.1684    1.9262    0.0001 C   0  0  0  0  0  0  0  0  0  0  0  0
    2.3735    0.8534    0.0184 C   0  0  0  0  0  0  0  0  0  0  0  0
   -2.2743    1.1057   -0.0045 C   0  0  0  0  0  0  0  0  0  0  0  0
    2.7446   -1.8956    0.0264 C   0  0  0  0  0  0  0  0  0  0  0  0
    1.4882   -1.4446    0.0459 C   0  0  0  0  0  0  0  0  0  0  0  0
    0.9292    2.7939   -0.0011 C   0  0  0  0  0  0  0  0  0  0  0  0
    2.2034    2.2344    0.0081 C   0  0  0  0  0  0  0  0  0  0  0  0
   -1.9911   -1.2761    0.0052 C   0  0  0  0  0  0  0  0  0  0  0  0
    4.8463   -1.2894    1.1926 C   0  0  0  0  0  0  0  0  0  0  0  0
    4.7289   -1.2406   -1.3109 C   0  0  0  0  0  0  0  0  0  0  0  0
   -3.6698    0.9832   -0.0108 C   0  0  0  0  0  0  0  0  0  0  0  0
   -3.3854   -1.4171   -0.0011 C   0  0  0  0  0  0  0  0  0  0  0  0
   -4.2123   -0.3011   -0.0085 C   0  0  0  0  0  0  0  0  0  0  0  0
   -3.9692   -2.7931    0.0029 C   0  0  0  0  0  0  0  0  0  0  0  0
    2.9137   -2.9699    0.0381 H   0  0  0  0  0  0  0  0  0  0  0  0
   -1.8715    3.1806   -0.0137 H   0  0  0  0  0  0  0  0  0  0  0  0
    0.6728   -2.1480    0.0784 H   0  0  0  0  0  0  0  0  0  0  0  0
    0.7959    3.8709   -0.0089 H   0  0  0  0  0  0  0  0  0  0  0  0
    3.0690    2.8929    0.0075 H   0  0  0  0  0  0  0  0  0  0  0  0
   -1.3737   -2.1669    0.0095 H   0  0  0  0  0  0  0  0  0  0  0  0
    5.1742   -2.3346    1.2127 H   0  0  0  0  0  0  0  0  0  0  0  0
    5.7368   -0.6497    1.1853 H   0  0  0  0  0  0  0  0  0  0  0  0
    4.3214   -1.0752    2.1314 H   0  0  0  0  0  0  0  0  0  0  0  0
    5.6181   -0.6011   -1.3613 H   0  0  0  0  0  0  0  0  0  0  0  0
    5.0498   -2.2841   -1.4027 H   0  0  0  0  0  0  0  0  0  0  0  0
    4.1197   -0.9898   -2.1878 H   0  0  0  0  0  0  0  0  0  0  0  0
   -4.3018    1.8661   -0.0170 H   0  0  0  0  0  0  0  0  0  0  0  0
   -3.1956   -3.5683   -0.0032 H   0  0  0  0  0  0  0  0  0  0  0  0
   -4.5792   -2.9441    0.8996 H   0  0  0  0  0  0  0  0  0  0  0  0
   -4.5919   -2.9445   -0.8851 H   0  0  0  0  0  0  0  0  0  0  0  0
   -5.9802    0.4391   -0.0155 H   0  0  0  0  0  0  0  0  0  0  0  0
  1  5  1  0  0  0  0
  1  9  1  0  0  0  0
  2 20  1  0  0  0  0
  2 38  1  0  0  0  0
  3  8  1  0  0  0  0
  3 10  1  0  0  0  0
  3 23  1  0  0  0  0
  4  6  1  0  0  0  0
  4  7  1  0  0  0  0
  4  8  2  0  0  0  0
  5 11  1  0  0  0  0
  5 16  1  0  0  0  0
  5 17  1  0  0  0  0
  6  9  2  0  0  0  0
  6 12  1  0  0  0  0
  7 10  2  0  0  0  0
  7 15  1  0  0  0  0
  8 13  1  0  0  0  0
  9 14  1  0  0  0  0
 10 18  1  0  0  0  0
 11 12  2  0  0  0  0
 11 22  1  0  0  0  0
 12 24  1  0  0  0  0
 13 14  2  0  0  0  0
 13 25  1  0  0  0  0
 14 26  1  0  0  0  0
 15 19  2  0  0  0  0
 15 27  1  0  0  0  0
 16 28  1  0  0  0  0
 16 29  1  0  0  0  0
 16 30  1  0  0  0  0
 17 31  1  0  0  0  0
 17 32  1  0  0  0  0
 17 33  1  0  0  0  0
 18 20  2  0  0  0  0
 18 34  1  0  0  0  0
 19 20  1  0  0  0  0
 19 21  1  0  0  0  0
 21 35  1  0  0  0  0
 21 36  1  0  0  0  0
 21 37  1  0  0  0  0
M  END
> <PUBCHEM_COMPOUND_CID>
10446329

> <PUBCHEM_CONFORMER_RMSD>
0.6

> <PUBCHEM_CONFORMER_DIVERSEORDER>
1

> <PUBCHEM_MMFF94_PARTIAL_CHARGES>
25
1 -0.36
10 -0.15
11 -0.29
12 -0.18
13 -0.15
14 -0.15
15 -0.15
18 -0.15
19 -0.14
2 -0.53
20 0.08
21 0.14
22 0.15
23 0.27
24 0.15
25 0.15
26 0.15
27 0.15
3 0.03
34 0.15
38 0.45
5 0.42
6 0.03
8 -0.15
9 0.08

> <PUBCHEM_EFFECTIVE_ROTOR_COUNT>
0.4

> <PUBCHEM_PHARMACOPHORE_FEATURES>
9
1 1 acceptor
1 2 donor
1 3 cation
1 3 donor
3 5 16 17 hydrophobe
5 3 4 7 8 10 rings
6 1 5 6 9 11 12 rings
6 4 6 8 9 13 14 rings
6 7 10 15 18 19 20 rings

> <PUBCHEM_HEAVY_ATOM_COUNT>
21

> <PUBCHEM_ATOM_DEF_STEREO_COUNT>
0

> <PUBCHEM_ATOM_UDEF_STEREO_COUNT>
0

> <PUBCHEM_BOND_DEF_STEREO_COUNT>
0

> <PUBCHEM_BOND_UDEF_STEREO_COUNT>
0

> <PUBCHEM_ISOTOPIC_ATOM_COUNT>
0

> <PUBCHEM_COMPONENT_COUNT>
1

> <PUBCHEM_CACTVS_TAUTO_COUNT>
9

> <PUBCHEM_CONFORMER_ID>
009F65F900000001

> <PUBCHEM_MMFF94_ENERGY>
60.0665

> <PUBCHEM_FEATURE_SELFOVERLAP>
45.872

> <PUBCHEM_SHAPE_FINGERPRINT>
10319926 262 17980454808555984570
10616163 171 18412547578575134871
10967382 1 18194401331892077896
11578080 2 17631712972492750961
11806522 49 18408604768822259820
12236239 1 17749392504033874066
12506688 2 18343303664857145024
12553582 1 18410569552756095511
12596599 1 18059032647241333315
12596602 18 14333116486184943455
12633257 1 18342188760504345547
13140716 1 18412823594574319113
13533116 47 18200875209939964481
13583140 156 14261064312506012261
138480 1 18338516451354627660
13862211 1 18410006615766755811
14115302 16 17894641373864245423
14178342 30 18123460593229748216
14341114 176 18341338859263901939
14790565 3 17616538796748291780
14866123 147 17406278732969647531
15042514 8 18122058711382486850
15196674 1 18410292553156068467
15352361 1 18410855451543774787
15442244 35 18411984650397041961
15536298 74 18341893030035372208
15927050 60 17693375951495382732
17492 89 18194964265077794759
17804303 29 18412547582948989485
1813 80 17531243980470167765
18186145 218 17604138329000819091
18222031 100 18272650138730887766
19141452 34 18342177774162677007
19591789 44 18338799030153439391
200 152 18202560683602486185
20028762 73 18130782403978521927
20261772 1 17917705807921538302
20281475 54 18338519741636640853
20403669 9 18412265016918697503
20645477 70 18336260266584301533
21033648 29 17059193870363478298
21267235 1 18410865351796813459
221490 88 18264213667346315754
23366157 5 18041840756691934620
23379529 103 18272101516825952158
23402539 116 18338789018494637918
23557571 272 18057894550011979004
23559900 14 18411694421997433225
23622692 118 18057873839827981607
2871803 45 18335137583375997926
3004659 81 18259988150214707190
314173 41 18410862057456417470
335352 9 18410573951493547541
4214541 1 18410573968541372105
465052 167 18271814544237874263
5104073 3 18341051916936255569
7364860 26 18341330105989164552
8809292 202 18333734636746203803
8863177 126 17824560771043854099
9709674 26 18191025810142235331
9981440 41 17472133354835034528

> <PUBCHEM_SHAPE_MULTIPOLES>
415.45
9.88
2.84
0.76
1.49
0.65
0.03
-6.02
0.06
0.22
-0.01
-0.75
-0.2
0.01

> <PUBCHEM_SHAPE_SELFOVERLAP>
938.472

> <PUBCHEM_SHAPE_VOLUME>
222.7

> <PUBCHEM_COORDINATE_TYPE>
2
5
10

$$$$
