927945
  -OEChem-11202011193D

 28 30  0     0  0  0  0  0  0999 V2000
   -2.5184   -1.7195    0.0727 O   0  0  0  0  0  0  0  0  0  0  0  0
    2.6835   -1.5817    0.3100 O   0  0  0  0  0  0  0  0  0  0  0  0
   -1.5225    2.7583   -0.1832 O   0  0  0  0  0  0  0  0  0  0  0  0
   -0.2053   -1.1415    0.1433 N   0  0  0  0  0  0  0  0  0  0  0  0
    0.7541   -0.0972    0.1172 C   0  0  0  0  0  0  0  0  0  0  0  0
    0.3323    1.2629    0.0043 C   0  0  0  0  0  0  0  0  0  0  0  0
   -1.5148   -0.8043    0.0578 C   0  0  0  0  0  0  0  0  0  0  0  0
   -2.0197    0.4705   -0.0529 C   0  0  0  0  0  0  0  0  0  0  0  0
   -1.1281    1.6047   -0.0873 C   0  0  0  0  0  0  0  0  0  0  0  0
    2.1367   -0.3361    0.1991 C   0  0  0  0  0  0  0  0  0  0  0  0
    1.2600    2.3116   -0.0236 C   0  0  0  0  0  0  0  0  0  0  0  0
    0.1635   -2.5487    0.2567 C   0  0  0  0  0  0  0  0  0  0  0  0
   -3.4241    0.3408   -0.1105 C   0  0  0  0  0  0  0  0  0  0  0  0
    3.0575    0.7160    0.1709 C   0  0  0  0  0  0  0  0  0  0  0  0
    2.6212    2.0333    0.0599 C   0  0  0  0  0  0  0  0  0  0  0  0
   -3.6781   -1.0119   -0.0305 C   0  0  0  0  0  0  0  0  0  0  0  0
    3.0022   -2.2571   -0.9038 C   0  0  0  0  0  0  0  0  0  0  0  0
    0.9412    3.3467   -0.1095 H   0  0  0  0  0  0  0  0  0  0  0  0
    0.8448   -2.7331    1.0926 H   0  0  0  0  0  0  0  0  0  0  0  0
    0.5595   -2.9303   -0.6863 H   0  0  0  0  0  0  0  0  0  0  0  0
   -0.7050   -3.1817    0.4799 H   0  0  0  0  0  0  0  0  0  0  0  0
   -4.1625    1.1246   -0.1987 H   0  0  0  0  0  0  0  0  0  0  0  0
    4.1241    0.5146    0.2367 H   0  0  0  0  0  0  0  0  0  0  0  0
    3.3435    2.8442    0.0389 H   0  0  0  0  0  0  0  0  0  0  0  0
   -4.5830   -1.6019   -0.0332 H   0  0  0  0  0  0  0  0  0  0  0  0
    2.9499   -3.3355   -0.7299 H   0  0  0  0  0  0  0  0  0  0  0  0
    4.0278   -2.0058   -1.1919 H   0  0  0  0  0  0  0  0  0  0  0  0
    2.3274   -1.9871   -1.7233 H   0  0  0  0  0  0  0  0  0  0  0  0
  1  7  1  0  0  0  0
  1 16  1  0  0  0  0
  2 10  1  0  0  0  0
  2 17  1  0  0  0  0
  3  9  2  0  0  0  0
  4  5  1  0  0  0  0
  4  7  1  0  0  0  0
  4 12  1  0  0  0  0
  5  6  2  0  0  0  0
  5 10  1  0  0  0  0
  6  9  1  0  0  0  0
  6 11  1  0  0  0  0
  7  8  2  0  0  0  0
  8  9  1  0  0  0  0
  8 13  1  0  0  0  0
 10 14  2  0  0  0  0
 11 15  2  0  0  0  0
 11 18  1  0  0  0  0
 12 19  1  0  0  0  0
 12 20  1  0  0  0  0
 12 21  1  0  0  0  0
 13 16  2  0  0  0  0
 13 22  1  0  0  0  0
 14 15  1  0  0  0  0
 14 23  1  0  0  0  0
 15 24  1  0  0  0  0
 16 25  1  0  0  0  0
 17 26  1  0  0  0  0
 17 27  1  0  0  0  0
 17 28  1  0  0  0  0
M  END
> <PUBCHEM_COMPOUND_CID>
927945

> <PUBCHEM_CONFORMER_RMSD>
0.6

> <PUBCHEM_CONFORMER_DIVERSEORDER>
1

> <PUBCHEM_MMFF94_PARTIAL_CHARGES>
22
1 -0.28
10 0.08
11 -0.15
12 0.37
13 -0.15
14 -0.15
15 -0.15
16 -0.01
17 0.28
18 0.15
2 -0.36
22 0.15
23 0.15
24 0.15
25 0.15
3 -0.57
4 -0.55
5 0.1
6 0.09
7 0.22
8 -0.09
9 0.57

> <PUBCHEM_EFFECTIVE_ROTOR_COUNT>
1

> <PUBCHEM_PHARMACOPHORE_FEATURES>
7
1 1 acceptor
1 2 acceptor
1 3 acceptor
1 4 cation
5 1 7 8 13 16 rings
6 4 5 6 7 8 9 rings
6 5 6 10 11 14 15 rings

> <PUBCHEM_HEAVY_ATOM_COUNT>
17

> <PUBCHEM_ATOM_DEF_STEREO_COUNT>
0

> <PUBCHEM_ATOM_UDEF_STEREO_COUNT>
0

> <PUBCHEM_BOND_DEF_STEREO_COUNT>
0

> <PUBCHEM_BOND_UDEF_STEREO_COUNT>
0

> <PUBCHEM_ISOTOPIC_ATOM_COUNT>
0

> <PUBCHEM_COMPONENT_COUNT>
1

> <PUBCHEM_CACTVS_TAUTO_COUNT>
1

> <PUBCHEM_CONFORMER_ID>
000E28C900000001

> <PUBCHEM_MMFF94_ENERGY>
64.5474

> <PUBCHEM_FEATURE_SELFOVERLAP>
35.651

> <PUBCHEM_SHAPE_FINGERPRINT>
10608611 8 18408879659456110013
10967382 1 18337952423300325545
10980938 120 18265895937348148736
11132069 177 18268702986265527352
11471102 20 18337946900125519693
116883 192 18269556048337779941
12382932 28 18193553595594934560
13140716 1 18409450293206049715
13380535 76 18193552492078476642
13897977 150 18338513157235348837
14790565 3 16756924689668405984
15196674 1 18409727408543080121
15375462 6 18411138073324031574
15442244 35 18339925900669792728
15536298 74 18342739628181818234
16945 1 18265048037984666131
193761 8 18265893549547045545
19591789 44 16540184537456964777
20510252 161 18343018904151715185
20559304 39 18410572911784342504
20588541 1 18265898153604170440
20645477 70 18410847794223806247
20871999 31 18194700172028423166
21267235 1 18337679722952642491
21501502 16 18411704248792903104
22721475 48 18408886252062019888
23184049 29 18337667521092693490
2334 1 18410291380872862640
23402539 116 18197486522933399252
23463225 33 18336825385369743177
23559900 14 18413101758790516848
2748010 2 18337665309237523964
335352 9 18194399992247403821
7364860 26 18342739650152565840
7832392 63 18051974718898942377
8809292 202 18261116240207009987
9709674 26 18410013277208375307

> <PUBCHEM_SHAPE_MULTIPOLES>
327.26
5.4
3
0.66
1.55
0.05
0.04
-1.06
0.29
-1.2
0.21
-0.17
-0.12
0.41

> <PUBCHEM_SHAPE_SELFOVERLAP>
731.409

> <PUBCHEM_SHAPE_VOLUME>
174.7

> <PUBCHEM_COORDINATE_TYPE>
2
5
10

$$$$
