147297
  -OEChem-11202011163D

 33 35  0     0  0  0  0  0  0999 V2000
   -4.4679   -0.1942    0.2540 O   0  0  0  0  0  0  0  0  0  0  0  0
    4.5933    1.0285   -0.1268 O   0  0  0  0  0  0  0  0  0  0  0  0
    0.0508   -2.0315    0.0904 N   0  0  0  0  0  0  0  0  0  0  0  0
   -0.3193    0.1675    0.0813 C   0  0  0  0  0  0  0  0  0  0  0  0
    1.0925   -0.0608    0.0265 C   0  0  0  0  0  0  0  0  0  0  0  0
   -0.9417   -1.0805    0.1205 C   0  0  0  0  0  0  0  0  0  0  0  0
    1.2916   -1.4416    0.0338 C   0  0  0  0  0  0  0  0  0  0  0  0
   -1.1262    1.3244    0.1015 C   0  0  0  0  0  0  0  0  0  0  0  0
   -2.5179    1.1894    0.1598 C   0  0  0  0  0  0  0  0  0  0  0  0
   -2.3319   -1.2316    0.1788 C   0  0  0  0  0  0  0  0  0  0  0  0
    2.2215    0.7831   -0.0284 C   0  0  0  0  0  0  0  0  0  0  0  0
   -3.1098   -0.0708    0.1979 C   0  0  0  0  0  0  0  0  0  0  0  0
    2.5637   -2.0232   -0.0111 C   0  0  0  0  0  0  0  0  0  0  0  0
    3.5003    0.2163   -0.0734 C   0  0  0  0  0  0  0  0  0  0  0  0
    3.6665   -1.1665   -0.0646 C   0  0  0  0  0  0  0  0  0  0  0  0
   -3.3598    2.4239    0.1817 C   0  0  0  0  0  0  0  0  0  0  0  0
   -5.1612   -0.2669   -0.9889 C   0  0  0  0  0  0  0  0  0  0  0  0
    4.3556    2.4346   -0.1330 C   0  0  0  0  0  0  0  0  0  0  0  0
   -0.1099   -3.0291    0.1079 H   0  0  0  0  0  0  0  0  0  0  0  0
   -0.6643    2.3076    0.0698 H   0  0  0  0  0  0  0  0  0  0  0  0
   -2.7875   -2.2163    0.2089 H   0  0  0  0  0  0  0  0  0  0  0  0
    2.0326    1.8498   -0.0328 H   0  0  0  0  0  0  0  0  0  0  0  0
    2.6939   -3.1003   -0.0044 H   0  0  0  0  0  0  0  0  0  0  0  0
    4.6661   -1.5933   -0.1000 H   0  0  0  0  0  0  0  0  0  0  0  0
   -4.1847    2.3281    0.8956 H   0  0  0  0  0  0  0  0  0  0  0  0
   -2.7779    3.2993    0.4910 H   0  0  0  0  0  0  0  0  0  0  0  0
   -3.7673    2.6229   -0.8142 H   0  0  0  0  0  0  0  0  0  0  0  0
   -4.9542    0.6108   -1.6085 H   0  0  0  0  0  0  0  0  0  0  0  0
   -6.2341   -0.3009   -0.7807 H   0  0  0  0  0  0  0  0  0  0  0  0
   -4.8817   -1.1781   -1.5273 H   0  0  0  0  0  0  0  0  0  0  0  0
    3.8746    2.7666    0.7934 H   0  0  0  0  0  0  0  0  0  0  0  0
    3.8012    2.7461   -1.0249 H   0  0  0  0  0  0  0  0  0  0  0  0
    5.3327    2.9267   -0.1780 H   0  0  0  0  0  0  0  0  0  0  0  0
  1 12  1  0  0  0  0
  1 17  1  0  0  0  0
  2 14  1  0  0  0  0
  2 18  1  0  0  0  0
  3  6  1  0  0  0  0
  3  7  1  0  0  0  0
  3 19  1  0  0  0  0
  4  5  1  0  0  0  0
  4  6  2  0  0  0  0
  4  8  1  0  0  0  0
  5  7  2  0  0  0  0
  5 11  1  0  0  0  0
  6 10  1  0  0  0  0
  7 13  1  0  0  0  0
  8  9  2  0  0  0  0
  8 20  1  0  0  0  0
  9 12  1  0  0  0  0
  9 16  1  0  0  0  0
 10 12  2  0  0  0  0
 10 21  1  0  0  0  0
 11 14  2  0  0  0  0
 11 22  1  0  0  0  0
 13 15  2  0  0  0  0
 13 23  1  0  0  0  0
 14 15  1  0  0  0  0
 15 24  1  0  0  0  0
 16 25  1  0  0  0  0
 16 26  1  0  0  0  0
 16 27  1  0  0  0  0
 17 28  1  0  0  0  0
 17 29  1  0  0  0  0
 17 30  1  0  0  0  0
 18 31  1  0  0  0  0
 18 32  1  0  0  0  0
 18 33  1  0  0  0  0
M  END
> <PUBCHEM_COMPOUND_CID>
147297

> <PUBCHEM_CONFORMER_RMSD>
0.6

> <PUBCHEM_CONFORMER_DIVERSEORDER>
1
2

> <PUBCHEM_MMFF94_PARTIAL_CHARGES>
22
1 -0.36
10 -0.15
11 -0.15
12 0.08
13 -0.15
14 0.08
15 -0.15
16 0.14
17 0.28
18 0.28
19 0.27
2 -0.36
20 0.15
21 0.15
22 0.15
23 0.15
24 0.15
3 0.03
6 -0.15
7 -0.15
8 -0.15
9 -0.14

> <PUBCHEM_EFFECTIVE_ROTOR_COUNT>
2

> <PUBCHEM_PHARMACOPHORE_FEATURES>
7
1 1 acceptor
1 2 acceptor
1 3 cation
1 3 donor
5 3 4 5 6 7 rings
6 4 6 8 9 10 12 rings
6 5 7 11 13 14 15 rings

> <PUBCHEM_HEAVY_ATOM_COUNT>
18

> <PUBCHEM_ATOM_DEF_STEREO_COUNT>
0

> <PUBCHEM_ATOM_UDEF_STEREO_COUNT>
0

> <PUBCHEM_BOND_DEF_STEREO_COUNT>
0

> <PUBCHEM_BOND_UDEF_STEREO_COUNT>
0

> <PUBCHEM_ISOTOPIC_ATOM_COUNT>
0

> <PUBCHEM_COMPONENT_COUNT>
1

> <PUBCHEM_CACTVS_TAUTO_COUNT>
1

> <PUBCHEM_CONFORMER_ID>
00023F6100000001

> <PUBCHEM_MMFF94_ENERGY>
62.2681

> <PUBCHEM_FEATURE_SELFOVERLAP>
35.7

> <PUBCHEM_SHAPE_FINGERPRINT>
10411042 1 15888278545247899107
10608611 8 18409449146333834104
10670039 82 18188789296497329204
10967382 1 18410576197344464728
11471102 20 18410572885946012398
12403260 363 18338790118101204778
13140716 1 18263649463341429114
13583140 156 16805322218888395521
14528608 73 18412825802187392317
14787075 74 18342737459534680697
14897335 6 18410575102233448654
15196674 1 18410857616296871857
15442244 35 18194403277886958946
15536298 74 18341052939075304046
16945 1 18337400438388095307
18186145 218 18200323104277837968
18769570 83 15213567963331857325
200 152 18272925008538273687
20510252 161 18342742879809964193
20645477 70 18342458102014205654
21029758 11 18342171177003447593
21267235 1 18339089202396745874
21501502 16 18339923688962023891
21652331 79 18410294722146454801
21709351 56 18267580208942165094
23402539 116 18338790221243931455
23402655 69 18342732980136907701
23559900 14 18198339542494491170
245318 6 16882743394336161372
29717793 49 17988922219803170967
335352 9 17977948986162296286
34934 24 18337949090453501383
3545911 37 18334580169719745782
4214541 1 18339081484271644393
4340502 62 16877942741837412307
474 4 17749678488515262116
4990 188 17988934323179266550
5104073 3 18336830788306649233
58051976 378 18412265064295057172
6333272 397 18408324410526555168
633830 44 18270120102134700287
69090 78 18342454841970367511
7364860 26 18341054021739670854
77779 3 18339927017440293907
9709674 26 18340212877573982175

> <PUBCHEM_SHAPE_MULTIPOLES>
353.71
9.33
2.34
0.67
1.51
0.66
0.05
3.03
1.3
-1.17
-0.06
0.31
-0.01
-0.29

> <PUBCHEM_SHAPE_SELFOVERLAP>
784.17

> <PUBCHEM_SHAPE_VOLUME>
193.4

> <PUBCHEM_COORDINATE_TYPE>
2
5
10

$$$$
