11357993
  -OEChem-11202011053D

 40 42  0     0  0  0  0  0  0999 V2000
    4.0978    0.8803    0.5807 O   0  0  0  0  0  0  0  0  0  0  0  0
   -4.9750   -0.1763   -0.1604 O   0  0  0  0  0  0  0  0  0  0  0  0
   -0.9905    2.6229   -0.4901 N   0  0  0  0  0  0  0  0  0  0  0  0
    0.4509    1.0350    0.1210 C   0  0  0  0  0  0  0  0  0  0  0  0
   -0.8696    0.4831    0.1254 C   0  0  0  0  0  0  0  0  0  0  0  0
    0.3426    2.3706   -0.2669 C   0  0  0  0  0  0  0  0  0  0  0  0
    1.7312    0.5190    0.4122 C   0  0  0  0  0  0  0  0  0  0  0  0
   -1.7462    1.4974   -0.2602 C   0  0  0  0  0  0  0  0  0  0  0  0
    1.9427   -0.9023    0.8360 C   0  0  0  0  0  0  0  0  0  0  0  0
   -1.4000   -0.7899    0.4229 C   0  0  0  0  0  0  0  0  0  0  0  0
    2.8485    1.3547    0.3045 C   0  0  0  0  0  0  0  0  0  0  0  0
    1.4504    3.2187   -0.3789 C   0  0  0  0  0  0  0  0  0  0  0  0
   -3.1284    1.3045   -0.3646 C   0  0  0  0  0  0  0  0  0  0  0  0
   -2.7803   -0.9981    0.3234 C   0  0  0  0  0  0  0  0  0  0  0  0
    2.7078    2.6843   -0.0852 C   0  0  0  0  0  0  0  0  0  0  0  0
   -3.6298    0.0349   -0.0649 C   0  0  0  0  0  0  0  0  0  0  0  0
    2.1767   -1.8283   -0.3292 C   0  0  0  0  0  0  0  0  0  0  0  0
   -3.3280   -2.3520    0.6407 C   0  0  0  0  0  0  0  0  0  0  0  0
    1.8413   -3.1283   -0.4360 C   0  0  0  0  0  0  0  0  0  0  0  0
    2.1056   -3.9972   -1.6328 C   0  0  0  0  0  0  0  0  0  0  0  0
    1.1522   -3.8331    0.7023 C   0  0  0  0  0  0  0  0  0  0  0  0
   -1.3642    3.5148   -0.7837 H   0  0  0  0  0  0  0  0  0  0  0  0
    2.7961   -0.9794    1.5215 H   0  0  0  0  0  0  0  0  0  0  0  0
    1.1034   -1.2104    1.4601 H   0  0  0  0  0  0  0  0  0  0  0  0
   -0.7650   -1.6146    0.7174 H   0  0  0  0  0  0  0  0  0  0  0  0
    1.3414    4.2544   -0.6825 H   0  0  0  0  0  0  0  0  0  0  0  0
   -3.7807    2.1172   -0.6682 H   0  0  0  0  0  0  0  0  0  0  0  0
    3.5843    3.3232   -0.1649 H   0  0  0  0  0  0  0  0  0  0  0  0
    2.6974   -1.3893   -1.1804 H   0  0  0  0  0  0  0  0  0  0  0  0
   -3.8275   -2.7747   -0.2373 H   0  0  0  0  0  0  0  0  0  0  0  0
   -2.5425   -3.0535    0.9418 H   0  0  0  0  0  0  0  0  0  0  0  0
   -4.0447   -2.2883    1.4662 H   0  0  0  0  0  0  0  0  0  0  0  0
    4.1527   -0.0653    0.3708 H   0  0  0  0  0  0  0  0  0  0  0  0
   -5.4069    0.6483   -0.4420 H   0  0  0  0  0  0  0  0  0  0  0  0
    2.5942   -3.4372   -2.4369 H   0  0  0  0  0  0  0  0  0  0  0  0
    2.7585   -4.8333   -1.3628 H   0  0  0  0  0  0  0  0  0  0  0  0
    1.1663   -4.3980   -2.0273 H   0  0  0  0  0  0  0  0  0  0  0  0
    1.1726   -3.2909    1.6498 H   0  0  0  0  0  0  0  0  0  0  0  0
    0.1077   -4.0334    0.4421 H   0  0  0  0  0  0  0  0  0  0  0  0
    1.6423   -4.7946    0.8942 H   0  0  0  0  0  0  0  0  0  0  0  0
  1 11  1  0  0  0  0
  1 33  1  0  0  0  0
  2 16  1  0  0  0  0
  2 34  1  0  0  0  0
  3  6  1  0  0  0  0
  3  8  1  0  0  0  0
  3 22  1  0  0  0  0
  4  5  1  0  0  0  0
  4  6  2  0  0  0  0
  4  7  1  0  0  0  0
  5  8  2  0  0  0  0
  5 10  1  0  0  0  0
  6 12  1  0  0  0  0
  7  9  1  0  0  0  0
  7 11  2  0  0  0  0
  8 13  1  0  0  0  0
  9 17  1  0  0  0  0
  9 23  1  0  0  0  0
  9 24  1  0  0  0  0
 10 14  2  0  0  0  0
 10 25  1  0  0  0  0
 11 15  1  0  0  0  0
 12 15  2  0  0  0  0
 12 26  1  0  0  0  0
 13 16  2  0  0  0  0
 13 27  1  0  0  0  0
 14 16  1  0  0  0  0
 14 18  1  0  0  0  0
 15 28  1  0  0  0  0
 17 19  2  0  0  0  0
 17 29  1  0  0  0  0
 18 30  1  0  0  0  0
 18 31  1  0  0  0  0
 18 32  1  0  0  0  0
 19 20  1  0  0  0  0
 19 21  1  0  0  0  0
 20 35  1  0  0  0  0
 20 36  1  0  0  0  0
 20 37  1  0  0  0  0
 21 38  1  0  0  0  0
 21 39  1  0  0  0  0
 21 40  1  0  0  0  0
M  END
> <PUBCHEM_COMPOUND_CID>
11357993

> <PUBCHEM_CONFORMER_RMSD>
0.6

> <PUBCHEM_CONFORMER_DIVERSEORDER>
1
3
7
2
4
6
5

> <PUBCHEM_MMFF94_PARTIAL_CHARGES>
27
1 -0.53
10 -0.15
11 0.08
12 -0.15
13 -0.15
14 -0.14
15 -0.15
16 0.08
17 -0.29
18 0.14
19 -0.28
2 -0.53
20 0.14
21 0.14
22 0.27
25 0.15
26 0.15
27 0.15
28 0.15
29 0.15
3 0.03
33 0.45
34 0.45
6 -0.15
7 -0.14
8 -0.15
9 0.28

> <PUBCHEM_EFFECTIVE_ROTOR_COUNT>
2

> <PUBCHEM_PHARMACOPHORE_FEATURES>
8
1 1 donor
1 2 donor
1 3 cation
1 3 donor
3 19 20 21 hydrophobe
5 3 4 5 6 8 rings
6 4 6 7 11 12 15 rings
6 5 8 10 13 14 16 rings

> <PUBCHEM_HEAVY_ATOM_COUNT>
21

> <PUBCHEM_ATOM_DEF_STEREO_COUNT>
0

> <PUBCHEM_ATOM_UDEF_STEREO_COUNT>
0

> <PUBCHEM_BOND_DEF_STEREO_COUNT>
0

> <PUBCHEM_BOND_UDEF_STEREO_COUNT>
0

> <PUBCHEM_ISOTOPIC_ATOM_COUNT>
0

> <PUBCHEM_COMPONENT_COUNT>
1

> <PUBCHEM_CACTVS_TAUTO_COUNT>
40

> <PUBCHEM_CONFORMER_ID>
00AD4F2900000001

> <PUBCHEM_MMFF94_ENERGY>
48.6029

> <PUBCHEM_FEATURE_SELFOVERLAP>
40.776

> <PUBCHEM_SHAPE_FINGERPRINT>
10411042 1 17905041461526860267
10616163 171 18264488567055150355
10906281 52 18187940489998772216
10967382 1 18408601470044841921
11578080 2 16590820531677826774
116883 192 18194679259373657565
12553582 1 17834119649545518491
12788726 201 17256823186906224918
12839892 36 18338776980250011890
13140716 1 18337949124824049489
13533116 47 18201718432432065625
138480 1 18266177232057896554
14178342 30 18412823568957671784
14251757 5 17403197901669077766
14790565 3 18193003831344956524
14863182 85 18336271214503574492
14866123 147 17045142988176402529
15006816 218 18410575106280502611
15042514 8 17543911664819494120
15196674 1 18117837926498398985
15635459 17 18408324363081532747
16087824 20 17040358485072984347
16945 1 18408888429658392385
17138139 8 17053837307764841879
18681886 176 18192426605284136352
19591789 44 18121782991456250370
19930381 70 18265048038285872651
20028762 73 17912927467641970254
20645477 70 18335413617124815373
21197605 99 17399531507395909779
21267235 1 18261959647256266521
21285901 2 18040981931084320661
22182313 1 17968933086053172765
23184049 29 17904758882505586450
2334 1 17975695309353314137
23557571 272 17334200236043977266
23559900 14 18338227181075097664
2748010 2 17975119955544956396
3060560 45 18340205293030379116
335352 9 18334570269852147485
4280585 95 18049442539963978174
5104073 3 18118119397391328145
6438718 38 16979568642781887614
7364860 26 18411138039043576704
81228 2 17835236744906093480
8272917 22 18411985780052263215
9709674 26 18409446960396011987
9925002 15 14445380622037331437

> <PUBCHEM_SHAPE_MULTIPOLES>
415.45
6.38
4.97
0.9
5.26
3.32
-0.14
0.78
0.15
-4.2
-1.14
-0.37
0.63
1.15

> <PUBCHEM_SHAPE_SELFOVERLAP>
912.314

> <PUBCHEM_SHAPE_VOLUME>
227.9

> <PUBCHEM_COORDINATE_TYPE>
2
5
10

$$$$
