141455485
  -OEChem-09302001593D

 29 28  0     1  0  0  0  0  0999 V2000
    0.6282    0.4217   -1.2828 O   0  0  0  0  0  0  0  0  0  0  0  0
    0.4473   -1.2240    1.9751 O   0  0  0  0  0  0  0  0  0  0  0  0
   -1.9067    0.1311   -0.4635 O   0  0  0  0  0  0  0  0  0  0  0  0
    2.2808    1.4696    0.7412 O   0  0  0  0  0  0  0  0  0  0  0  0
    4.7685    0.2589   -0.3298 O   0  0  0  0  0  0  0  0  0  0  0  0
   -1.8363   -2.4012   -1.2799 O   0  0  0  0  0  0  0  0  0  0  0  0
   -2.7979    1.4434    1.2158 O   0  0  0  0  0  0  0  0  0  0  0  0
    1.0596   -0.3827   -0.1801 C   0  0  2  0  0  0  0  0  0  0  0  0
   -0.0193   -0.3782    0.9168 C   0  0  1  0  0  0  0  0  0  0  0  0
    2.4422    0.1322    0.2466 C   0  0  1  0  0  0  0  0  0  0  0  0
   -1.4347   -0.8021    0.5024 C   0  0  2  0  0  0  0  0  0  0  0  0
    3.4590    0.1959   -0.8880 C   0  0  0  0  0  0  0  0  0  0  0  0
   -1.5042   -2.1820   -0.1189 C   0  0  0  0  0  0  0  0  0  0  0  0
   -2.5755    1.2138    0.0348 C   0  0  0  0  0  0  0  0  0  0  0  0
   -3.0109    2.1037   -1.0897 C   0  0  0  0  0  0  0  0  0  0  0  0
    1.1932   -1.4062   -0.5526 H   0  0  0  0  0  0  0  0  0  0  0  0
   -0.0835    0.6393    1.3219 H   0  0  0  0  0  0  0  0  0  0  0  0
    2.8286   -0.4738    1.0740 H   0  0  0  0  0  0  0  0  0  0  0  0
   -2.0978   -0.8504    1.3760 H   0  0  0  0  0  0  0  0  0  0  0  0
    3.3150    1.0801   -1.5173 H   0  0  0  0  0  0  0  0  0  0  0  0
    3.4110   -0.7065   -1.5053 H   0  0  0  0  0  0  0  0  0  0  0  0
   -0.1566   -0.0027   -1.6686 H   0  0  0  0  0  0  0  0  0  0  0  0
   -0.2006   -1.1714    2.6982 H   0  0  0  0  0  0  0  0  0  0  0  0
   -1.2334   -3.0155    0.5520 H   0  0  0  0  0  0  0  0  0  0  0  0
    3.1556    1.7780    1.0339 H   0  0  0  0  0  0  0  0  0  0  0  0
    5.3937    0.2918   -1.0738 H   0  0  0  0  0  0  0  0  0  0  0  0
   -2.1362    2.4578   -1.6410 H   1  0  0  0  0  0  0  0  0  0  0  0
   -3.5407    2.9698   -0.6829 H   0  0  0  0  0  0  0  0  0  0  0  0
   -3.6890    1.5592   -1.7515 H   0  0  0  0  0  0  0  0  0  0  0  0
  1  8  1  0  0  0  0
  1 22  1  0  0  0  0
  2  9  1  0  0  0  0
  2 23  1  0  0  0  0
  3 11  1  0  0  0  0
  3 14  1  0  0  0  0
  4 10  1  0  0  0  0
  4 25  1  0  0  0  0
  5 12  1  0  0  0  0
  5 26  1  0  0  0  0
  6 13  2  0  0  0  0
  7 14  2  0  0  0  0
  8  9  1  0  0  0  0
  8 10  1  0  0  0  0
  8 16  1  0  0  0  0
  9 11  1  0  0  0  0
  9 17  1  0  0  0  0
 10 12  1  0  0  0  0
 10 18  1  0  0  0  0
 11 13  1  0  0  0  0
 11 19  1  0  0  0  0
 12 20  1  0  0  0  0
 12 21  1  0  0  0  0
 13 24  1  0  0  0  0
 14 15  1  0  0  0  0
 15 27  1  0  0  0  0
 15 28  1  0  0  0  0
 15 29  1  0  0  0  0
M  ISO  1  27   2
M  END
> <PUBCHEM_COMPOUND_CID>
141455485

> <PUBCHEM_CONFORMER_RMSD>
0.8

> <PUBCHEM_CONFORMER_DIVERSEORDER>
1
36
17
88
66
49
75
60
48
13
26
20
12
30
9
63
22
71
61
29
72
50
27
73
84
68
87
39
38
15
40
56
85
46
21
44
16
62
82
33
6
28
55
79
5
52
35
74
10
67
51
43
11
64
42
47
37
24
4
31
83
77
70
18
19
45
81
32
59
80
76
2
3
78
86
41
53
34
14
57
54
69
25
23
58
7
65
8

> <PUBCHEM_MMFF94_PARTIAL_CHARGES>
20
1 -0.68
10 0.28
11 0.34
12 0.28
13 0.45
14 0.66
15 0.06
2 -0.68
22 0.4
23 0.4
24 0.06
25 0.4
26 0.4
3 -0.43
4 -0.68
5 -0.68
6 -0.57
7 -0.57
8 0.28
9 0.28

> <PUBCHEM_EFFECTIVE_ROTOR_COUNT>
7

> <PUBCHEM_PHARMACOPHORE_FEATURES>
10
1 1 acceptor
1 1 donor
1 2 acceptor
1 2 donor
1 4 acceptor
1 4 donor
1 5 acceptor
1 5 donor
1 6 acceptor
1 7 acceptor

> <PUBCHEM_HEAVY_ATOM_COUNT>
15

> <PUBCHEM_ATOM_DEF_STEREO_COUNT>
4

> <PUBCHEM_ATOM_UDEF_STEREO_COUNT>
0

> <PUBCHEM_BOND_DEF_STEREO_COUNT>
0

> <PUBCHEM_BOND_UDEF_STEREO_COUNT>
0

> <PUBCHEM_ISOTOPIC_ATOM_COUNT>
1

> <PUBCHEM_COMPONENT_COUNT>
1

> <PUBCHEM_CACTVS_TAUTO_COUNT>
-1

> <PUBCHEM_CONFORMER_ID>
086E707D00000001

> <PUBCHEM_MMFF94_ENERGY>
27.1426

> <PUBCHEM_FEATURE_SELFOVERLAP>
50.761

> <PUBCHEM_SHAPE_FINGERPRINT>
12138202 97 18343302548070624719
12491281 212 18410578361839203024
12500047 106 18341891883674652270
12716758 59 18271804648385122347
12932764 1 18341055215397512586
15309172 13 16370730339546487026
15775835 57 18188209797485912497
16945 1 18272368637931547904
18186145 218 18058450915416811153
18534176 82 17775287174760892567
19837323 101 18343590629176528259
19873495 37 18187372012485491139
200 152 15554449561770336460
20511035 2 16955604361541659077
20524608 308 18413392054965460831
20645477 56 18341620329871948112
20653085 51 18411428335941031952
20711985 344 18199453536810082959
21339142 149 18189339124781795962
21524375 3 18262797346494147809
22959321 105 17917152822719069364
23402539 116 18202842162942690821
23557571 272 17842817074309967939
23559900 14 18131354082195966070
25 1 17986961756010679857
298252 57 18337391530789304555
305870 269 17749669567356297179
6333449 129 18413673517167850861
68419 9 18045186480343832451
69090 78 18412266125252140975
81228 2 18195243541115074507

> <PUBCHEM_SHAPE_MULTIPOLES>
267.61
5.96
2.11
1.33
5.51
0.58
-0.2
-3.09
1.11
-2.26
0.42
-0.25
0.2
-0.22

> <PUBCHEM_SHAPE_SELFOVERLAP>
516.712

> <PUBCHEM_SHAPE_VOLUME>
161.4

> <PUBCHEM_COORDINATE_TYPE>
2
5
10

$$$$
