74977421
  -OEChem-09292012143D

 50 53  0     1  0  0  0  0  0999 V2000
    3.2803   -0.6879   -0.5745 O   0  0  0  0  0  0  0  0  0  0  0  0
    3.0785    2.5466    1.1888 O   0  0  0  0  0  0  0  0  0  0  0  0
    5.5852    1.9741    0.1754 O   0  0  0  0  0  0  0  0  0  0  0  0
    5.0057   -1.2887    1.6889 O   0  0  0  0  0  0  0  0  0  0  0  0
    4.7472   -2.4818   -2.3873 O   0  0  0  0  0  0  0  0  0  0  0  0
    1.3342   -1.5203    0.5908 O   0  0  0  0  0  0  0  0  0  0  0  0
    1.3213    2.8754   -1.2663 O   0  0  0  0  0  0  0  0  0  0  0  0
   -2.8242    0.7701   -0.3505 O   0  0  0  0  0  0  0  0  0  0  0  0
   -0.9962   -2.5908    1.0501 O   0  0  0  0  0  0  0  0  0  0  0  0
    3.4279    1.1805    0.9880 C   0  0  2  0  0  0  0  0  0  0  0  0
    4.9546    1.0299    1.0405 C   0  0  1  0  0  0  0  0  0  0  0  0
    2.8510    0.6590   -0.3390 C   0  0  2  0  0  0  0  0  0  0  0  0
    5.3759   -0.3876    0.6462 C   0  0  2  0  0  0  0  0  0  0  0  0
    4.7024   -0.8250   -0.6657 C   0  0  1  0  0  0  0  0  0  0  0  0
    1.3345    0.6662   -0.3328 C   0  0  0  0  0  0  0  0  0  0  0  0
    4.9939   -2.2827   -1.0070 C   0  0  0  0  0  0  0  0  0  0  0  0
    0.6310   -0.4425    0.1398 C   0  0  0  0  0  0  0  0  0  0  0  0
    0.6463    1.7862   -0.8018 C   0  0  0  0  0  0  0  0  0  0  0  0
   -0.7656   -0.4222    0.1399 C   0  0  0  0  0  0  0  0  0  0  0  0
   -0.7486    1.8024   -0.8001 C   0  0  0  0  0  0  0  0  0  0  0  0
   -1.4545    0.6957   -0.3277 C   0  0  0  0  0  0  0  0  0  0  0  0
   -1.5350   -1.5759    0.6303 C   0  0  0  0  0  0  0  0  0  0  0  0
   -3.5524   -0.3116    0.1208 C   0  0  0  0  0  0  0  0  0  0  0  0
   -3.0054   -1.4449    0.5884 C   0  0  0  0  0  0  0  0  0  0  0  0
   -5.0158   -0.1276    0.0471 C   0  0  0  0  0  0  0  0  0  0  0  0
   -5.8481   -1.2295   -0.1496 C   0  0  0  0  0  0  0  0  0  0  0  0
   -5.5656    1.1478    0.1742 C   0  0  0  0  0  0  0  0  0  0  0  0
   -7.2304   -1.0559   -0.2192 C   0  0  0  0  0  0  0  0  0  0  0  0
   -6.9478    1.3215    0.1045 C   0  0  0  0  0  0  0  0  0  0  0  0
   -7.7802    0.2197   -0.0922 C   0  0  0  0  0  0  0  0  0  0  0  0
    2.9975    0.6043    1.8177 H   0  0  0  0  0  0  0  0  0  0  0  0
    5.2914    1.2656    2.0573 H   0  0  0  0  0  0  0  0  0  0  0  0
    3.2040    1.2695   -1.1802 H   0  0  0  0  0  0  0  0  0  0  0  0
    6.4640   -0.4455    0.5251 H   0  0  0  0  0  0  0  0  0  0  0  0
    5.0482   -0.1873   -1.4900 H   0  0  0  0  0  0  0  0  0  0  0  0
    4.3529   -2.9669   -0.4414 H   0  0  0  0  0  0  0  0  0  0  0  0
    6.0445   -2.5269   -0.8210 H   0  0  0  0  0  0  0  0  0  0  0  0
    3.4581    2.8246    2.0397 H   0  0  0  0  0  0  0  0  0  0  0  0
    6.5464    1.8564    0.2639 H   0  0  0  0  0  0  0  0  0  0  0  0
    5.4699   -1.0089    2.4962 H   0  0  0  0  0  0  0  0  0  0  0  0
   -1.2899    2.6722   -1.1641 H   0  0  0  0  0  0  0  0  0  0  0  0
    4.9426   -3.4141   -2.5825 H   0  0  0  0  0  0  0  0  0  0  0  0
    0.7367   -2.2192    0.8963 H   0  0  0  0  0  0  0  0  0  0  0  0
    0.6804    3.5508   -1.5471 H   0  0  0  0  0  0  0  0  0  0  0  0
   -3.5762   -2.2843    0.9678 H   0  0  0  0  0  0  0  0  0  0  0  0
   -5.4578   -2.2357   -0.2755 H   0  0  0  0  0  0  0  0  0  0  0  0
   -4.9411    2.0227    0.3367 H   0  0  0  0  0  0  0  0  0  0  0  0
   -7.8787   -1.9129   -0.3774 H   0  0  0  0  0  0  0  0  0  0  0  0
   -7.3764    2.3144    0.2051 H   0  0  0  0  0  0  0  0  0  0  0  0
   -8.8564    0.3551   -0.1473 H   0  0  0  0  0  0  0  0  0  0  0  0
  1 12  1  0  0  0  0
  1 14  1  0  0  0  0
  2 10  1  0  0  0  0
  2 38  1  0  0  0  0
  3 11  1  0  0  0  0
  3 39  1  0  0  0  0
  4 13  1  0  0  0  0
  4 40  1  0  0  0  0
  5 16  1  0  0  0  0
  5 42  1  0  0  0  0
  6 17  1  0  0  0  0
  6 43  1  0  0  0  0
  7 18  1  0  0  0  0
  7 44  1  0  0  0  0
  8 21  1  0  0  0  0
  8 23  1  0  0  0  0
  9 22  2  0  0  0  0
 10 11  1  0  0  0  0
 10 12  1  0  0  0  0
 10 31  1  0  0  0  0
 11 13  1  0  0  0  0
 11 32  1  0  0  0  0
 12 15  1  0  0  0  0
 12 33  1  0  0  0  0
 13 14  1  0  0  0  0
 13 34  1  0  0  0  0
 14 16  1  0  0  0  0
 14 35  1  0  0  0  0
 15 17  2  0  0  0  0
 15 18  1  0  0  0  0
 16 36  1  0  0  0  0
 16 37  1  0  0  0  0
 17 19  1  0  0  0  0
 18 20  2  0  0  0  0
 19 21  2  0  0  0  0
 19 22  1  0  0  0  0
 20 21  1  0  0  0  0
 20 41  1  0  0  0  0
 22 24  1  0  0  0  0
 23 24  2  0  0  0  0
 23 25  1  0  0  0  0
 24 45  1  0  0  0  0
 25 26  2  0  0  0  0
 25 27  1  0  0  0  0
 26 28  1  0  0  0  0
 26 46  1  0  0  0  0
 27 29  2  0  0  0  0
 27 47  1  0  0  0  0
 28 30  2  0  0  0  0
 28 48  1  0  0  0  0
 29 30  1  0  0  0  0
 29 49  1  0  0  0  0
 30 50  1  0  0  0  0
M  END
> <PUBCHEM_COMPOUND_CID>
74977421

> <PUBCHEM_CONFORMER_RMSD>
0.8

> <PUBCHEM_CONFORMER_DIVERSEORDER>
1
48
36
40
3
67
61
32
38
15
76
64
66
44
41
35
25
71
43
33
70
28
72
53
58
46
57
47
13
37
29
7
22
10
45
59
51
49
18
26
78
17
27
80
24
5
2
6
74
39
52
14
42
81
30
12
73
34
56
19
68
75
79
11
20
8
62
23
55
50
31
63
54
69
4
60
9
65
16
77
21

> <PUBCHEM_MMFF94_PARTIAL_CHARGES>
43
1 -0.56
10 0.28
11 0.28
12 0.42
13 0.28
14 0.28
15 -0.14
16 0.28
17 0.08
18 0.08
19 0.09
2 -0.68
20 -0.15
21 0.08
22 0.47
23 0.05
24 -0.14
25 0.03
26 -0.15
27 -0.15
28 -0.15
29 -0.15
3 -0.68
30 -0.15
38 0.4
39 0.4
4 -0.68
40 0.4
41 0.15
42 0.4
43 0.45
44 0.45
45 0.15
46 0.15
47 0.15
48 0.15
49 0.15
5 -0.68
50 0.15
6 -0.53
7 -0.53
8 -0.16
9 -0.57

> <PUBCHEM_EFFECTIVE_ROTOR_COUNT>
4.2

> <PUBCHEM_PHARMACOPHORE_FEATURES>
17
1 1 acceptor
1 2 acceptor
1 2 donor
1 3 acceptor
1 3 donor
1 4 acceptor
1 4 donor
1 5 acceptor
1 5 donor
1 6 donor
1 7 donor
1 8 acceptor
1 9 acceptor
6 1 10 11 12 13 14 rings
6 15 17 18 19 20 21 rings
6 25 26 27 28 29 30 rings
6 8 19 21 22 23 24 rings

> <PUBCHEM_HEAVY_ATOM_COUNT>
30

> <PUBCHEM_ATOM_DEF_STEREO_COUNT>
0

> <PUBCHEM_ATOM_UDEF_STEREO_COUNT>
5

> <PUBCHEM_BOND_DEF_STEREO_COUNT>
0

> <PUBCHEM_BOND_UDEF_STEREO_COUNT>
0

> <PUBCHEM_ISOTOPIC_ATOM_COUNT>
0

> <PUBCHEM_COMPONENT_COUNT>
1

> <PUBCHEM_CACTVS_TAUTO_COUNT>
12

> <PUBCHEM_CONFORMER_ID>
0478108D00000001

> <PUBCHEM_MMFF94_ENERGY>
98.1534

> <PUBCHEM_FEATURE_SELFOVERLAP>
86.322

> <PUBCHEM_SHAPE_FINGERPRINT>
10050765 1 17971761231390394667
10165383 225 18059009610176318592
10816530 90 17822583810461262764
10906281 52 18187941606642328541
11646440 116 18410582799242436377
12166972 35 18412263965200687201
12236239 1 18202001036895543037
12516196 113 18409446998908468293
13140716 1 17970066858007243233
13383665 225 18262256455931376028
13533116 47 17989208140023559810
1361 2 18272654515044911911
13617811 41 17531251638349046191
13862211 1 18186799167069714547
14170010 4 18410575102238768909
14294032 229 17025152913533480501
14725015 67 18192992626286945074
14849402 71 18265336282226539513
14856354 85 15357700799697545483
15131766 46 16126658627089876008
15183329 4 18113340799718708695
15475509 8 18263093140802081341
15849732 13 18273494572530497087
1813 80 17095240332735950396
18681886 176 18411694422703860451
19141452 34 18411696633900257479
19319366 153 13398633835861641325
20028762 73 18412261731643626295
20157964 124 17917712417965578362
20505436 4 15840974686046151636
21033648 29 18128242570698283144
21130935 74 18272373070776095299
21267235 1 18259987050180839795
21279426 13 18338796711198088933
21781051 124 17241345645769950819
21792934 111 18188193326101729353
21859007 373 17531784919296732069
22956985 138 16663999614385853498
23522609 53 17751668510030740949
23536379 177 17775286054312485459
23559900 14 18336554897262111428
23569917 315 18260832639981916483
23569943 247 18122631548209407443
24771293 8 18337664338533178260
3004659 81 17967821543762642590
3178227 256 17968107425898077425
335352 9 18259985998219866127
3383291 50 18114185298128113355
3411729 13 18266171924074892192
350125 39 18260264153498547973
3680242 22 18040714749130795921
404807 14 17053046354803349215
4073 2 18262520419445186051
4093350 32 17918272048009727490
5104073 3 17969226814466097097
5385378 56 18113898205106994539
59755656 215 18260831454026921591
6138700 20 18261676982890197207

> <PUBCHEM_SHAPE_MULTIPOLES>
564.56
18.09
2.53
1.18
20.61
0.1
0.2
-1.88
-0.27
-2.36
0.37
-1.88
-0.31
1.48

> <PUBCHEM_SHAPE_SELFOVERLAP>
1246.597

> <PUBCHEM_SHAPE_VOLUME>
301.2

> <PUBCHEM_COORDINATE_TYPE>
2
5
10

$$$$
