101526842
  -OEChem-09302003443D

100102  0     1  0  0  0  0  0999 V2000
    9.1622   -0.6172   -1.2312 O   0  0  0  0  0  0  0  0  0  0  0  0
   12.3997    2.4328   -0.9638 O   0  0  0  0  0  0  0  0  0  0  0  0
  -10.0905    2.3035   -2.1548 O   0  0  0  0  0  0  0  0  0  0  0  0
  -10.3255    4.8835    1.2748 O   0  0  0  0  0  0  0  0  0  0  0  0
    9.8884    0.6222   -1.0117 C   0  0  1  0  0  0  0  0  0  0  0  0
    9.9067    2.3297    0.9933 C   0  0  0  0  0  0  0  0  0  0  0  0
    9.2312    1.2360    0.1931 C   0  0  0  0  0  0  0  0  0  0  0  0
   11.3513    0.2655   -0.7125 C   0  0  0  0  0  0  0  0  0  0  0  0
   11.3988    1.9404    1.2059 C   0  0  0  0  0  0  0  0  0  0  0  0
   12.1312    1.3948   -0.0310 C   0  0  2  0  0  0  0  0  0  0  0  0
    8.0963    0.5775    0.4494 C   0  0  0  0  0  0  0  0  0  0  0  0
    7.9116   -0.5354   -0.5189 C   0  0  2  0  0  0  0  0  0  0  0  0
    9.7211    1.4298   -2.3034 C   0  0  0  0  0  0  0  0  0  0  0  0
    9.2721    2.4988    2.3956 C   0  0  0  0  0  0  0  0  0  0  0  0
    9.7761    3.6922    0.2880 C   0  0  0  0  0  0  0  0  0  0  0  0
    7.6551   -1.8467    0.1409 C   0  0  0  0  0  0  0  0  0  0  0  0
   -8.3571    1.7524    0.4197 C   0  0  0  0  0  0  0  0  0  0  0  0
  -10.6205    1.8098   -0.9192 C   0  0  2  0  0  0  0  0  0  0  0  0
   -8.8841    2.9753    1.2071 C   0  0  0  0  0  0  0  0  0  0  0  0
   -9.8603    3.8425    0.4192 C   0  0  1  0  0  0  0  0  0  0  0  0
  -11.0470    3.0055   -0.0504 C   0  0  0  0  0  0  0  0  0  0  0  0
   -9.5235    0.9817   -0.2379 C   0  0  0  0  0  0  0  0  0  0  0  0
    8.9049   -2.5795    0.5459 C   0  0  0  0  0  0  0  0  0  0  0  0
   -7.5846    0.8681    1.4321 C   0  0  0  0  0  0  0  0  0  0  0  0
   -7.3440    2.2030   -0.6538 C   0  0  0  0  0  0  0  0  0  0  0  0
    6.3903   -2.2730    0.3246 C   0  0  0  0  0  0  0  0  0  0  0  0
  -11.8771    0.9925   -1.2719 C   0  0  0  0  0  0  0  0  0  0  0  0
   -9.4986   -0.3238   -0.3434 C   0  0  0  0  0  0  0  0  0  0  0  0
    5.1682   -1.5914   -0.0537 C   0  0  0  0  0  0  0  0  0  0  0  0
   -9.4824   -1.6210   -0.4526 C   0  0  0  0  0  0  0  0  0  0  0  0
    3.9496   -2.1098    0.1780 C   0  0  0  0  0  0  0  0  0  0  0  0
   -8.3938   -2.4754    0.0189 C   0  0  0  0  0  0  0  0  0  0  0  0
    2.6572   -1.5052   -0.1652 C   0  0  0  0  0  0  0  0  0  0  0  0
   -8.7866   -3.7761    0.6765 C   0  0  0  0  0  0  0  0  0  0  0  0
   -7.1242   -2.0530   -0.1614 C   0  0  0  0  0  0  0  0  0  0  0  0
    2.6841   -0.1618   -0.8510 C   0  0  0  0  0  0  0  0  0  0  0  0
    1.5317   -2.1820    0.1498 C   0  0  0  0  0  0  0  0  0  0  0  0
   -5.9010   -2.7324    0.2229 C   0  0  0  0  0  0  0  0  0  0  0  0
    0.1590   -1.7825   -0.0921 C   0  0  0  0  0  0  0  0  0  0  0  0
   -4.6823   -2.2138   -0.0082 C   0  0  0  0  0  0  0  0  0  0  0  0
   -0.8917   -2.5397    0.2661 C   0  0  0  0  0  0  0  0  0  0  0  0
   -3.3901   -2.8173    0.3381 C   0  0  0  0  0  0  0  0  0  0  0  0
   -2.2644   -2.1406    0.0233 C   0  0  0  0  0  0  0  0  0  0  0  0
   -3.4172   -4.1599    1.0250 C   0  0  0  0  0  0  0  0  0  0  0  0
   11.8522   -0.0310   -1.6431 H   0  0  0  0  0  0  0  0  0  0  0  0
   11.3814   -0.6202   -0.0632 H   0  0  0  0  0  0  0  0  0  0  0  0
   11.4522    1.1622    1.9806 H   0  0  0  0  0  0  0  0  0  0  0  0
   11.9453    2.8083    1.5977 H   0  0  0  0  0  0  0  0  0  0  0  0
   13.1058    1.0016    0.2815 H   0  0  0  0  0  0  0  0  0  0  0  0
    7.4160    0.7895    1.2615 H   0  0  0  0  0  0  0  0  0  0  0  0
    7.1594   -0.2710   -1.2675 H   0  0  0  0  0  0  0  0  0  0  0  0
   10.0361    0.8331   -3.1681 H   0  0  0  0  0  0  0  0  0  0  0  0
   10.2941    2.3572   -2.3163 H   0  0  0  0  0  0  0  0  0  0  0  0
    8.6683    1.6826   -2.4773 H   0  0  0  0  0  0  0  0  0  0  0  0
    9.8176    3.2446    2.9860 H   0  0  0  0  0  0  0  0  0  0  0  0
    8.7234    3.9486    0.1190 H   0  0  0  0  0  0  0  0  0  0  0  0
   10.2768    3.7264   -0.6799 H   0  0  0  0  0  0  0  0  0  0  0  0
    8.2302    2.8339    2.3300 H   0  0  0  0  0  0  0  0  0  0  0  0
    9.2878    1.5598    2.9616 H   0  0  0  0  0  0  0  0  0  0  0  0
   10.2149    4.4915    0.8971 H   0  0  0  0  0  0  0  0  0  0  0  0
   12.9043    3.1225   -0.5003 H   0  0  0  0  0  0  0  0  0  0  0  0
   -9.3826    2.6374    2.1278 H   0  0  0  0  0  0  0  0  0  0  0  0
   -8.0492    3.6005    1.5521 H   0  0  0  0  0  0  0  0  0  0  0  0
   -9.3574    4.3177   -0.4294 H   0  0  0  0  0  0  0  0  0  0  0  0
  -11.6151    2.6604    0.8247 H   0  0  0  0  0  0  0  0  0  0  0  0
  -11.7286    3.6603   -0.6099 H   0  0  0  0  0  0  0  0  0  0  0  0
    9.4815   -2.9008   -0.3272 H   0  0  0  0  0  0  0  0  0  0  0  0
    9.5372   -1.9592    1.1891 H   0  0  0  0  0  0  0  0  0  0  0  0
    8.6576   -3.4822    1.1156 H   0  0  0  0  0  0  0  0  0  0  0  0
   -6.9755    1.3520   -1.2381 H   0  0  0  0  0  0  0  0  0  0  0  0
   -7.7695    2.9224   -1.3590 H   0  0  0  0  0  0  0  0  0  0  0  0
   -6.4745    2.6849   -0.1911 H   0  0  0  0  0  0  0  0  0  0  0  0
   -8.2553    0.2705    2.0593 H   0  0  0  0  0  0  0  0  0  0  0  0
   -6.8582    0.2166    0.9520 H   0  0  0  0  0  0  0  0  0  0  0  0
   -6.9947    1.4957    2.1130 H   0  0  0  0  0  0  0  0  0  0  0  0
    6.2570   -3.2388    0.8107 H   0  0  0  0  0  0  0  0  0  0  0  0
  -12.6365    1.6319   -1.7381 H   0  0  0  0  0  0  0  0  0  0  0  0
  -12.3231    0.5269   -0.3864 H   0  0  0  0  0  0  0  0  0  0  0  0
  -11.6543    0.2119   -2.0088 H   0  0  0  0  0  0  0  0  0  0  0  0
  -10.7695    2.8583   -2.5753 H   0  0  0  0  0  0  0  0  0  0  0  0
  -10.9491    5.4263    0.7629 H   0  0  0  0  0  0  0  0  0  0  0  0
    5.2513   -0.6207   -0.5268 H   0  0  0  0  0  0  0  0  0  0  0  0
  -10.3720   -2.1264   -0.8172 H   0  0  0  0  0  0  0  0  0  0  0  0
    3.8945   -3.0836    0.6652 H   0  0  0  0  0  0  0  0  0  0  0  0
   -9.4679   -3.5815    1.5125 H   0  0  0  0  0  0  0  0  0  0  0  0
   -9.3051   -4.4187   -0.0436 H   0  0  0  0  0  0  0  0  0  0  0  0
   -7.9460   -4.3456    1.0769 H   0  0  0  0  0  0  0  0  0  0  0  0
   -6.9546   -1.1268   -0.7092 H   0  0  0  0  0  0  0  0  0  0  0  0
    3.2255   -0.2270   -1.8015 H   0  0  0  0  0  0  0  0  0  0  0  0
    1.6940    0.2346   -1.0844 H   0  0  0  0  0  0  0  0  0  0  0  0
    3.1764    0.5832   -0.2158 H   0  0  0  0  0  0  0  0  0  0  0  0
    1.6316   -3.1482    0.6461 H   0  0  0  0  0  0  0  0  0  0  0  0
   -5.9946   -3.6928    0.7147 H   0  0  0  0  0  0  0  0  0  0  0  0
   -0.0210   -0.8321   -0.5831 H   0  0  0  0  0  0  0  0  0  0  0  0
   -4.6263   -1.2441   -0.5035 H   0  0  0  0  0  0  0  0  0  0  0  0
   -0.7118   -3.4901    0.7571 H   0  0  0  0  0  0  0  0  0  0  0  0
   -2.3642   -1.1749   -0.4741 H   0  0  0  0  0  0  0  0  0  0  0  0
   -3.9118   -4.9049    0.3916 H   0  0  0  0  0  0  0  0  0  0  0  0
   -2.4271   -4.5575    1.2568 H   0  0  0  0  0  0  0  0  0  0  0  0
   -3.9568   -4.0930    1.9765 H   0  0  0  0  0  0  0  0  0  0  0  0
  1  5  1  0  0  0  0
  1 12  1  0  0  0  0
  2 10  1  0  0  0  0
  2 61  1  0  0  0  0
  3 18  1  0  0  0  0
  3 80  1  0  0  0  0
  4 20  1  0  0  0  0
  4 81  1  0  0  0  0
  5  7  1  0  0  0  0
  5  8  1  0  0  0  0
  5 13  1  0  0  0  0
  6  7  1  0  0  0  0
  6  9  1  0  0  0  0
  6 14  1  0  0  0  0
  6 15  1  0  0  0  0
  7 11  2  0  0  0  0
  8 10  1  0  0  0  0
  8 45  1  0  0  0  0
  8 46  1  0  0  0  0
  9 10  1  0  0  0  0
  9 47  1  0  0  0  0
  9 48  1  0  0  0  0
 10 49  1  0  0  0  0
 11 12  1  0  0  0  0
 11 50  1  0  0  0  0
 12 16  1  0  0  0  0
 12 51  1  0  0  0  0
 13 52  1  0  0  0  0
 13 53  1  0  0  0  0
 13 54  1  0  0  0  0
 14 55  1  0  0  0  0
 14 58  1  0  0  0  0
 14 59  1  0  0  0  0
 15 56  1  0  0  0  0
 15 57  1  0  0  0  0
 15 60  1  0  0  0  0
 16 23  1  0  0  0  0
 16 26  2  0  0  0  0
 17 19  1  0  0  0  0
 17 22  1  0  0  0  0
 17 24  1  0  0  0  0
 17 25  1  0  0  0  0
 18 21  1  0  0  0  0
 18 22  1  0  0  0  0
 18 27  1  0  0  0  0
 19 20  1  0  0  0  0
 19 62  1  0  0  0  0
 19 63  1  0  0  0  0
 20 21  1  0  0  0  0
 20 64  1  0  0  0  0
 21 65  1  0  0  0  0
 21 66  1  0  0  0  0
 22 28  2  0  0  0  0
 23 67  1  0  0  0  0
 23 68  1  0  0  0  0
 23 69  1  0  0  0  0
 24 73  1  0  0  0  0
 24 74  1  0  0  0  0
 24 75  1  0  0  0  0
 25 70  1  0  0  0  0
 25 71  1  0  0  0  0
 25 72  1  0  0  0  0
 26 29  1  0  0  0  0
 26 76  1  0  0  0  0
 27 77  1  0  0  0  0
 27 78  1  0  0  0  0
 27 79  1  0  0  0  0
 28 30  2  0  0  0  0
 29 31  2  0  0  0  0
 29 82  1  0  0  0  0
 30 32  1  0  0  0  0
 30 83  1  0  0  0  0
 31 33  1  0  0  0  0
 31 84  1  0  0  0  0
 32 34  1  0  0  0  0
 32 35  2  0  0  0  0
 33 36  1  0  0  0  0
 33 37  2  0  0  0  0
 34 85  1  0  0  0  0
 34 86  1  0  0  0  0
 34 87  1  0  0  0  0
 35 38  1  0  0  0  0
 35 88  1  0  0  0  0
 36 89  1  0  0  0  0
 36 90  1  0  0  0  0
 36 91  1  0  0  0  0
 37 39  1  0  0  0  0
 37 92  1  0  0  0  0
 38 40  2  0  0  0  0
 38 93  1  0  0  0  0
 39 41  2  0  0  0  0
 39 94  1  0  0  0  0
 40 42  1  0  0  0  0
 40 95  1  0  0  0  0
 41 43  1  0  0  0  0
 41 96  1  0  0  0  0
 42 43  2  0  0  0  0
 42 44  1  0  0  0  0
 43 97  1  0  0  0  0
 44 98  1  0  0  0  0
 44 99  1  0  0  0  0
 44100  1  0  0  0  0
M  END
> <PUBCHEM_COMPOUND_CID>
101526842

> <PUBCHEM_CONFORMER_RMSD>
1.2

> <PUBCHEM_CONFORMER_DIVERSEORDER>
1
191
188
49
41
10
164
81
64
170
126
193
150
166
116
172
31
58
176
13
95
56
69
169
141
6
133
145
120
94
102
66
195
84
138
134
78
160
87
125
24
19
30
22
142
91
122
154
185
114
62
104
178
127
89
107
110
163
162
51
197
61
60
106
50
182
65
105
43
184
52
55
174
46
96
139
101
181
147
90
73
92
44
112
196
121
5
27
128
192
18
93
183
85
186
14
21
103
157
15
143
74
71
97
144
130
117
151
173
82
167
8
77
53
39
180
88
108
4
159
190
57
109
119
2
171
59
23
137
17
45
165
35
32
135
40
194
34
37
12
38
26
175
179
42
153
158
20
118
72
16
99
54
76
129
80
156
70
86
136
7
48
79
149
177
75
131
83
67
25
33
100
113
98
11
146
3
168
132
29
28
36
68
189
47
187
155
140
63
124
148
123
152
9
111
115
161

> <PUBCHEM_MMFF94_PARTIAL_CHARGES>
49
1 -0.56
10 0.28
11 -0.29
12 0.56
16 -0.28
17 0.14
18 0.42
2 -0.68
20 0.28
22 -0.21
23 0.14
26 -0.15
28 -0.13
29 -0.15
3 -0.68
30 -0.09
31 -0.15
32 -0.14
33 -0.14
34 0.14
35 -0.15
36 0.14
37 -0.15
38 -0.15
39 -0.15
4 -0.68
40 -0.15
41 -0.15
42 -0.14
43 -0.15
44 0.14
5 0.42
50 0.15
6 0.14
61 0.4
7 -0.28
76 0.15
80 0.4
81 0.4
82 0.15
83 0.15
84 0.15
88 0.15
92 0.15
93 0.15
94 0.15
95 0.15
96 0.15
97 0.15

> <PUBCHEM_EFFECTIVE_ROTOR_COUNT>
10.2

> <PUBCHEM_PHARMACOPHORE_FEATURES>
16
1 1 acceptor
1 2 acceptor
1 2 donor
1 23 hydrophobe
1 3 acceptor
1 3 donor
1 34 hydrophobe
1 36 hydrophobe
1 4 acceptor
1 4 donor
1 44 hydrophobe
3 17 24 25 hydrophobe
3 6 14 15 hydrophobe
5 1 5 7 11 12 rings
6 17 18 19 20 21 22 rings
6 5 6 7 8 9 10 rings

> <PUBCHEM_HEAVY_ATOM_COUNT>
44

> <PUBCHEM_ATOM_DEF_STEREO_COUNT>
4

> <PUBCHEM_ATOM_UDEF_STEREO_COUNT>
1

> <PUBCHEM_BOND_DEF_STEREO_COUNT>
7

> <PUBCHEM_BOND_UDEF_STEREO_COUNT>
0

> <PUBCHEM_ISOTOPIC_ATOM_COUNT>
0

> <PUBCHEM_COMPONENT_COUNT>
1

> <PUBCHEM_CACTVS_TAUTO_COUNT>
32

> <PUBCHEM_CONFORMER_ID>
060D2D3A00000001

> <PUBCHEM_MMFF94_ENERGY>
119.1218

> <PUBCHEM_FEATURE_SELFOVERLAP>
81.304

> <PUBCHEM_SHAPE_FINGERPRINT>
10533779 47 13262393372076134526
11061554 47 18335136500975674447
11578821 258 18411699928055725320
13530399 1 18408886213354443491
13553643 46 17749104521886123518
15061470 23 18334574655156343878
15145344 44 18334581287166240972
15399244 5 18343577439875606818
15530121 191 18130219466808892521
15604295 49 18411978079028305891
17852330 162 18342737442302032163
20105231 36 9511463329176103850
21362267 2 17846207921869998728
21362267 313 18261669291052689722
21895431 317 11311790445156872708
44280117 145 18339079402442647311
9937071 3 12468628435735649762

> <PUBCHEM_SHAPE_MULTIPOLES>
882.02
69.12
5.64
1.35
32.33
1.7
-0.08
64.06
-5.97
-12
1.83
1.31
1.07
1.21

> <PUBCHEM_SHAPE_SELFOVERLAP>
1820.001

> <PUBCHEM_SHAPE_VOLUME>
503.9

> <PUBCHEM_COORDINATE_TYPE>
2
5
10

$$$$
