175616
  -OEChem-09302003403D

 76 81  0     1  0  0  0  0  0999 V2000
   -1.2772   -1.3518   -0.4588 O   0  0  0  0  0  0  0  0  0  0  0  0
    2.1870   -1.7684    0.6415 O   0  0  0  0  0  0  0  0  0  0  0  0
    1.7122   -4.1489   -1.0142 O   0  0  0  0  0  0  0  0  0  0  0  0
   -2.8701   -2.7808   -1.4042 O   0  0  0  0  0  0  0  0  0  0  0  0
   -1.0518   -4.9928   -0.9357 O   0  0  0  0  0  0  0  0  0  0  0  0
    1.0374    0.8088   -0.2392 O   0  0  0  0  0  0  0  0  0  0  0  0
    3.6272   -1.7369   -1.1801 O   0  0  0  0  0  0  0  0  0  0  0  0
    2.1700    1.9845    1.4144 O   0  0  0  0  0  0  0  0  0  0  0  0
    6.1438    2.2510    1.3812 O   0  0  0  0  0  0  0  0  0  0  0  0
    6.5949    0.8924   -1.4467 O   0  0  0  0  0  0  0  0  0  0  0  0
    5.8773   -1.6385    4.1281 O   0  0  0  0  0  0  0  0  0  0  0  0
   -6.2546   -1.6277    1.7437 O   0  0  0  0  0  0  0  0  0  0  0  0
   -5.9593    0.6913   -2.4478 O   0  0  0  0  0  0  0  0  0  0  0  0
    6.8778    0.8898    3.6306 O   0  0  0  0  0  0  0  0  0  0  0  0
    5.9324    2.2649   -3.7104 O   0  0  0  0  0  0  0  0  0  0  0  0
    3.3739    3.2539   -4.0521 O   0  0  0  0  0  0  0  0  0  0  0  0
   -8.4284    0.0033   -0.2549 O   0  0  0  0  0  0  0  0  0  0  0  0
    1.0311   -1.9743   -0.1900 C   0  0  1  0  0  0  0  0  0  0  0  0
    0.6856   -3.4610   -0.3005 C   0  0  1  0  0  0  0  0  0  0  0  0
   -0.1590   -1.2236    0.4273 C   0  0  1  0  0  0  0  0  0  0  0  0
   -0.6259   -3.6373   -1.0702 C   0  0  2  0  0  0  0  0  0  0  0  0
   -1.7278   -2.7059   -0.5510 C   0  0  1  0  0  0  0  0  0  0  0  0
    0.0936    0.2673    0.7030 C   0  0  0  0  0  0  0  0  0  0  0  0
    3.3608   -1.5469   -0.0059 C   0  0  0  0  0  0  0  0  0  0  0  0
   -3.9462   -2.0126   -1.0546 C   0  0  0  0  0  0  0  0  0  0  0  0
    4.2720   -0.8769    0.9347 C   0  0  0  0  0  0  0  0  0  0  0  0
    4.7633    0.4169    0.6525 C   0  0  0  0  0  0  0  0  0  0  0  0
    2.0445    1.5581    0.2793 C   0  0  0  0  0  0  0  0  0  0  0  0
    4.3771    1.1823   -0.5518 C   0  0  0  0  0  0  0  0  0  0  0  0
    3.0804    1.7030   -0.7552 C   0  0  0  0  0  0  0  0  0  0  0  0
   -4.4153   -1.0406   -1.9328 C   0  0  0  0  0  0  0  0  0  0  0  0
   -4.5637   -2.2081    0.1770 C   0  0  0  0  0  0  0  0  0  0  0  0
    4.6432   -1.5634    2.0968 C   0  0  0  0  0  0  0  0  0  0  0  0
    5.6491    0.9909    1.5814 C   0  0  0  0  0  0  0  0  0  0  0  0
    5.3263    1.3917   -1.5681 C   0  0  0  0  0  0  0  0  0  0  0  0
    2.7451    2.3948   -1.9252 C   0  0  0  0  0  0  0  0  0  0  0  0
    5.5187   -0.9658    2.9993 C   0  0  0  0  0  0  0  0  0  0  0  0
   -5.6608   -1.4238    0.5341 C   0  0  0  0  0  0  0  0  0  0  0  0
   -5.5124   -0.2563   -1.5759 C   0  0  0  0  0  0  0  0  0  0  0  0
    6.0218    0.3075    2.7422 C   0  0  0  0  0  0  0  0  0  0  0  0
   -6.1351   -0.4479   -0.3425 C   0  0  0  0  0  0  0  0  0  0  0  0
    4.9944    2.0826   -2.7367 C   0  0  0  0  0  0  0  0  0  0  0  0
    3.7061    2.5809   -2.9151 C   0  0  0  0  0  0  0  0  0  0  0  0
   -7.2818    0.3727    0.0301 C   0  0  0  0  0  0  0  0  0  0  0  0
   -7.1327    1.6671    0.7568 C   0  0  0  0  0  0  0  0  0  0  0  0
   -5.8670    2.0981    1.0836 C   0  0  0  0  0  0  0  0  0  0  0  0
   -8.2664    2.3812    1.0720 C   0  0  0  0  0  0  0  0  0  0  0  0
   -5.7275    3.3085    1.7627 C   0  0  0  0  0  0  0  0  0  0  0  0
   -8.1267    3.5916    1.7510 C   0  0  0  0  0  0  0  0  0  0  0  0
   -6.8572    4.0552    2.0963 C   0  0  0  0  0  0  0  0  0  0  0  0
    1.2157   -1.5855   -1.2016 H   0  0  0  0  0  0  0  0  0  0  0  0
    0.6283   -3.9255    0.6914 H   0  0  0  0  0  0  0  0  0  0  0  0
   -0.4394   -1.6697    1.3918 H   0  0  0  0  0  0  0  0  0  0  0  0
   -0.4620   -3.4655   -2.1408 H   0  0  0  0  0  0  0  0  0  0  0  0
   -2.0222   -3.0503    0.4493 H   0  0  0  0  0  0  0  0  0  0  0  0
   -0.8330    0.8447    0.6174 H   0  0  0  0  0  0  0  0  0  0  0  0
    0.4711    0.3689    1.7272 H   0  0  0  0  0  0  0  0  0  0  0  0
    2.5303   -4.0712   -0.4948 H   0  0  0  0  0  0  0  0  0  0  0  0
   -1.2155   -5.1649    0.0073 H   0  0  0  0  0  0  0  0  0  0  0  0
   -3.9227   -0.8982   -2.8912 H   0  0  0  0  0  0  0  0  0  0  0  0
   -4.2160   -2.9774    0.8610 H   0  0  0  0  0  0  0  0  0  0  0  0
    4.2602   -2.5612    2.2966 H   0  0  0  0  0  0  0  0  0  0  0  0
    1.7416    2.7927   -2.0566 H   0  0  0  0  0  0  0  0  0  0  0  0
    5.6394    2.7188    0.6975 H   0  0  0  0  0  0  0  0  0  0  0  0
    7.0992    1.1300   -2.2440 H   0  0  0  0  0  0  0  0  0  0  0  0
    6.4883   -1.0779    4.6374 H   0  0  0  0  0  0  0  0  0  0  0  0
   -7.0194   -1.0405    1.8538 H   0  0  0  0  0  0  0  0  0  0  0  0
   -5.4032    0.6775   -3.2456 H   0  0  0  0  0  0  0  0  0  0  0  0
    7.1220    1.7681    3.2907 H   0  0  0  0  0  0  0  0  0  0  0  0
    5.5243    2.7599   -4.4418 H   0  0  0  0  0  0  0  0  0  0  0  0
    2.4410    3.5240   -4.0002 H   0  0  0  0  0  0  0  0  0  0  0  0
   -4.9653    1.5462    0.8418 H   0  0  0  0  0  0  0  0  0  0  0  0
   -9.2642    2.0408    0.8139 H   0  0  0  0  0  0  0  0  0  0  0  0
   -4.7392    3.6699    2.0319 H   0  0  0  0  0  0  0  0  0  0  0  0
   -9.0062    4.1734    2.0110 H   0  0  0  0  0  0  0  0  0  0  0  0
   -6.7485    4.9977    2.6250 H   0  0  0  0  0  0  0  0  0  0  0  0
  1 20  1  0  0  0  0
  1 22  1  0  0  0  0
  2 18  1  0  0  0  0
  2 24  1  0  0  0  0
  3 19  1  0  0  0  0
  3 58  1  0  0  0  0
  4 22  1  0  0  0  0
  4 25  1  0  0  0  0
  5 21  1  0  0  0  0
  5 59  1  0  0  0  0
  6 23  1  0  0  0  0
  6 28  1  0  0  0  0
  7 24  2  0  0  0  0
  8 28  2  0  0  0  0
  9 34  1  0  0  0  0
  9 64  1  0  0  0  0
 10 35  1  0  0  0  0
 10 65  1  0  0  0  0
 11 37  1  0  0  0  0
 11 66  1  0  0  0  0
 12 38  1  0  0  0  0
 12 67  1  0  0  0  0
 13 39  1  0  0  0  0
 13 68  1  0  0  0  0
 14 40  1  0  0  0  0
 14 69  1  0  0  0  0
 15 42  1  0  0  0  0
 15 70  1  0  0  0  0
 16 43  1  0  0  0  0
 16 71  1  0  0  0  0
 17 44  2  0  0  0  0
 18 19  1  0  0  0  0
 18 20  1  0  0  0  0
 18 51  1  0  0  0  0
 19 21  1  0  0  0  0
 19 52  1  0  0  0  0
 20 23  1  0  0  0  0
 20 53  1  0  0  0  0
 21 22  1  0  0  0  0
 21 54  1  0  0  0  0
 22 55  1  0  0  0  0
 23 56  1  0  0  0  0
 23 57  1  0  0  0  0
 24 26  1  0  0  0  0
 25 31  2  0  0  0  0
 25 32  1  0  0  0  0
 26 27  1  0  0  0  0
 26 33  2  0  0  0  0
 27 29  1  0  0  0  0
 27 34  2  0  0  0  0
 28 30  1  0  0  0  0
 29 30  1  0  0  0  0
 29 35  2  0  0  0  0
 30 36  2  0  0  0  0
 31 39  1  0  0  0  0
 31 60  1  0  0  0  0
 32 38  2  0  0  0  0
 32 61  1  0  0  0  0
 33 37  1  0  0  0  0
 33 62  1  0  0  0  0
 34 40  1  0  0  0  0
 35 42  1  0  0  0  0
 36 43  1  0  0  0  0
 36 63  1  0  0  0  0
 37 40  2  0  0  0  0
 38 41  1  0  0  0  0
 39 41  2  0  0  0  0
 41 44  1  0  0  0  0
 42 43  2  0  0  0  0
 44 45  1  0  0  0  0
 45 46  2  0  0  0  0
 45 47  1  0  0  0  0
 46 48  1  0  0  0  0
 46 72  1  0  0  0  0
 47 49  2  0  0  0  0
 47 73  1  0  0  0  0
 48 50  2  0  0  0  0
 48 74  1  0  0  0  0
 49 50  1  0  0  0  0
 49 75  1  0  0  0  0
 50 76  1  0  0  0  0
M  END
> <PUBCHEM_COMPOUND_CID>
175616

> <PUBCHEM_CONFORMER_RMSD>
1

> <PUBCHEM_CONFORMER_DIVERSEORDER>
2
100
140
51
34
66
39
118
55
127
152
116
20
33
104
115
120
85
9
117
91
18
23
123
160
73
70
157
79
81
57
95
71
13
11
139
61
54
122
150
72
6
110
98
82
25
53
58
59
1
138
19
142
32
135
17
145
103
80
89
156
153
129
119
30
36
121
64
108
159
7
133
50
162
63
28
126
125
113
97
56
154
67
31
74
5
65
124
143
93
84
137
90
99
44
42
96
109
158
10
106
78
76
134
151
35
83
136
60
29
68
102
112
107
161
22
148
46
26
24
62
21
38
111
37
69
146
86
105
87
77
40
147
45
14
144
114
155
130
8
49
27
75
149
16
141
88
15
48
131
94
101
4
12
52
132
92
43
128
3
47
41

> <PUBCHEM_MMFF94_PARTIAL_CHARGES>
67
1 -0.56
10 -0.53
11 -0.53
12 -0.53
13 -0.53
14 -0.53
15 -0.53
16 -0.53
17 -0.57
18 0.28
19 0.28
2 -0.43
20 0.28
21 0.28
22 0.56
23 0.28
24 0.63
25 0.08
26 0.09
28 0.63
3 -0.68
30 0.09
31 -0.15
32 -0.15
33 -0.15
34 0.08
35 0.08
36 -0.15
37 0.08
38 0.08
39 0.08
4 -0.36
40 0.08
41 0.09
42 0.08
43 0.08
44 0.4
45 0.09
46 -0.15
47 -0.15
48 -0.15
49 -0.15
5 -0.68
50 -0.15
58 0.4
59 0.4
6 -0.43
60 0.15
61 0.15
62 0.15
63 0.15
64 0.45
65 0.45
66 0.45
67 0.45
68 0.45
69 0.45
7 -0.57
70 0.45
71 0.45
72 0.15
73 0.15
74 0.15
75 0.15
76 0.15
8 -0.57
9 -0.53

> <PUBCHEM_EFFECTIVE_ROTOR_COUNT>
5.4

> <PUBCHEM_PHARMACOPHORE_FEATURES>
22
1 1 acceptor
1 10 donor
1 11 donor
1 12 donor
1 13 donor
1 14 donor
1 15 donor
1 16 donor
1 17 acceptor
1 3 acceptor
1 3 donor
1 4 acceptor
1 5 acceptor
1 5 donor
1 7 acceptor
1 8 acceptor
1 9 donor
6 1 18 19 20 21 22 rings
6 25 31 32 38 39 41 rings
6 26 27 33 34 37 40 rings
6 29 30 35 36 42 43 rings
6 45 46 47 48 49 50 rings

> <PUBCHEM_HEAVY_ATOM_COUNT>
50

> <PUBCHEM_ATOM_DEF_STEREO_COUNT>
3

> <PUBCHEM_ATOM_UDEF_STEREO_COUNT>
2

> <PUBCHEM_BOND_DEF_STEREO_COUNT>
0

> <PUBCHEM_BOND_UDEF_STEREO_COUNT>
0

> <PUBCHEM_ISOTOPIC_ATOM_COUNT>
0

> <PUBCHEM_COMPONENT_COUNT>
1

> <PUBCHEM_CACTVS_TAUTO_COUNT>
998

> <PUBCHEM_CONFORMER_ID>
0002AE0000000002

> <PUBCHEM_MMFF94_ENERGY>
187.1879

> <PUBCHEM_FEATURE_SELFOVERLAP>
111.736

> <PUBCHEM_SHAPE_FINGERPRINT>
11475781 23 17489586757685071249
1200032 147 17896055363387591334
12422481 6 17895179017844349231
12975358 362 18262523577174862541
13782708 43 14346054413886392440
14294032 229 18337393746845710597
14664723 55 18335715965684945933
15183329 4 18335416911079914847
15513586 35 17824831289663928783
16112460 7 18410297986991454461
20691028 202 18342178843641416343
21223535 225 17847054489672364157
21792965 106 18201723912220167649
22033318 11 18187082810767682760
23522609 53 18042135399752986557
23569914 152 16842503154054270318
249057 25 18044637931110397374
9555976 147 18263639722762588995

> <PUBCHEM_SHAPE_MULTIPOLES>
929.2
24.36
5.04
3.45
32.79
1.84
-0.23
-19.6
9.76
4.59
-0.93
-8.03
-2.54
-7.21

> <PUBCHEM_SHAPE_SELFOVERLAP>
2080.562

> <PUBCHEM_SHAPE_VOLUME>
485

> <PUBCHEM_COORDINATE_TYPE>
2
5
10

$$$$
