12309864
  -OEChem-09302002443D

 49 52  0     1  0  0  0  0  0999 V2000
    0.9975   -2.8050   -0.1231 O   0  0  0  0  0  0  0  0  0  0  0  0
    0.6310   -0.8720    1.1336 O   0  0  0  0  0  0  0  0  0  0  0  0
    5.0705   -2.0908   -0.1846 O   0  0  0  0  0  0  0  0  0  0  0  0
    3.2425    0.0427    0.4354 O   0  0  0  0  0  0  0  0  0  0  0  0
    3.4055   -4.2762    0.2802 O   0  0  0  0  0  0  0  0  0  0  0  0
   -1.8506    1.5467   -0.1232 O   0  0  0  0  0  0  0  0  0  0  0  0
   -1.7168   -2.3596    1.0287 O   0  0  0  0  0  0  0  0  0  0  0  0
   -4.2718   -2.6009    0.5278 O   0  0  0  0  0  0  0  0  0  0  0  0
   -6.4945    1.2793   -1.0687 O   0  0  0  0  0  0  0  0  0  0  0  0
    3.1298    2.9750   -1.9824 O   0  0  0  0  0  0  0  0  0  0  0  0
    3.6928    4.5106    0.2659 O   0  0  0  0  0  0  0  0  0  0  0  0
    3.7178   -2.0518   -0.6310 C   0  0  2  0  0  0  0  0  0  0  0  0
    2.8628   -1.3330    0.4112 C   0  0  2  0  0  0  0  0  0  0  0  0
    3.2065   -3.4694   -0.8819 C   0  0  2  0  0  0  0  0  0  0  0  0
    1.3768   -1.4421    0.0589 C   0  0  1  0  0  0  0  0  0  0  0  0
    1.7131   -3.4471   -1.1817 C   0  0  0  0  0  0  0  0  0  0  0  0
   -0.5543   -0.3239    0.6931 C   0  0  0  0  0  0  0  0  0  0  0  0
   -0.6682    0.9559    0.2937 C   0  0  0  0  0  0  0  0  0  0  0  0
   -1.7594   -1.1878    0.6786 C   0  0  0  0  0  0  0  0  0  0  0  0
   -3.0082   -0.5586    0.2222 C   0  0  0  0  0  0  0  0  0  0  0  0
   -2.9879    0.7820   -0.1561 C   0  0  0  0  0  0  0  0  0  0  0  0
    0.4745    1.8865    0.2826 C   0  0  0  0  0  0  0  0  0  0  0  0
   -4.1980   -1.2889    0.1690 C   0  0  0  0  0  0  0  0  0  0  0  0
   -4.1597    1.4023   -0.5904 C   0  0  0  0  0  0  0  0  0  0  0  0
    1.2745    1.9964   -0.8551 C   0  0  0  0  0  0  0  0  0  0  0  0
    0.7573    2.6577    1.4104 C   0  0  0  0  0  0  0  0  0  0  0  0
   -5.3686   -0.6665   -0.2661 C   0  0  0  0  0  0  0  0  0  0  0  0
   -5.3497    0.6765   -0.6451 C   0  0  0  0  0  0  0  0  0  0  0  0
    2.3565    2.8768   -0.8650 C   0  0  0  0  0  0  0  0  0  0  0  0
    1.8393    3.5379    1.4005 C   0  0  0  0  0  0  0  0  0  0  0  0
    2.6389    3.6474    0.2627 C   0  0  0  0  0  0  0  0  0  0  0  0
    3.7116   -1.4842   -1.5695 H   0  0  0  0  0  0  0  0  0  0  0  0
    3.0467   -1.7334    1.4157 H   0  0  0  0  0  0  0  0  0  0  0  0
    3.7575   -3.9419   -1.7021 H   0  0  0  0  0  0  0  0  0  0  0  0
    1.1877   -0.8979   -0.8767 H   0  0  0  0  0  0  0  0  0  0  0  0
    1.4995   -2.9355   -2.1271 H   0  0  0  0  0  0  0  0  0  0  0  0
    1.3251   -4.4685   -1.2513 H   0  0  0  0  0  0  0  0  0  0  0  0
    5.0859   -2.4861    0.7032 H   0  0  0  0  0  0  0  0  0  0  0  0
    4.1922    0.0794    0.6417 H   0  0  0  0  0  0  0  0  0  0  0  0
    4.3641   -4.3870    0.3973 H   0  0  0  0  0  0  0  0  0  0  0  0
   -4.1474    2.4484   -0.8860 H   0  0  0  0  0  0  0  0  0  0  0  0
    1.0525    1.4019   -1.7386 H   0  0  0  0  0  0  0  0  0  0  0  0
    0.1431    2.5833    2.3045 H   0  0  0  0  0  0  0  0  0  0  0  0
   -6.2956   -1.2336   -0.3080 H   0  0  0  0  0  0  0  0  0  0  0  0
    2.0542    4.1353    2.2822 H   0  0  0  0  0  0  0  0  0  0  0  0
   -3.4024   -2.9272    0.8060 H   0  0  0  0  0  0  0  0  0  0  0  0
   -7.2199    0.6318   -1.0435 H   0  0  0  0  0  0  0  0  0  0  0  0
    2.7878    2.3664   -2.6594 H   0  0  0  0  0  0  0  0  0  0  0  0
    4.1343    4.4571   -0.5996 H   0  0  0  0  0  0  0  0  0  0  0  0
  1 15  1  0  0  0  0
  1 16  1  0  0  0  0
  2 15  1  0  0  0  0
  2 17  1  0  0  0  0
  3 12  1  0  0  0  0
  3 38  1  0  0  0  0
  4 13  1  0  0  0  0
  4 39  1  0  0  0  0
  5 14  1  0  0  0  0
  5 40  1  0  0  0  0
  6 18  1  0  0  0  0
  6 21  1  0  0  0  0
  7 19  2  0  0  0  0
  8 23  1  0  0  0  0
  8 46  1  0  0  0  0
  9 28  1  0  0  0  0
  9 47  1  0  0  0  0
 10 29  1  0  0  0  0
 10 48  1  0  0  0  0
 11 31  1  0  0  0  0
 11 49  1  0  0  0  0
 12 13  1  0  0  0  0
 12 14  1  0  0  0  0
 12 32  1  0  0  0  0
 13 15  1  0  0  0  0
 13 33  1  0  0  0  0
 14 16  1  0  0  0  0
 14 34  1  0  0  0  0
 15 35  1  0  0  0  0
 16 36  1  0  0  0  0
 16 37  1  0  0  0  0
 17 18  2  0  0  0  0
 17 19  1  0  0  0  0
 18 22  1  0  0  0  0
 19 20  1  0  0  0  0
 20 21  1  0  0  0  0
 20 23  2  0  0  0  0
 21 24  2  0  0  0  0
 22 25  2  0  0  0  0
 22 26  1  0  0  0  0
 23 27  1  0  0  0  0
 24 28  1  0  0  0  0
 24 41  1  0  0  0  0
 25 29  1  0  0  0  0
 25 42  1  0  0  0  0
 26 30  2  0  0  0  0
 26 43  1  0  0  0  0
 27 28  2  0  0  0  0
 27 44  1  0  0  0  0
 29 31  2  0  0  0  0
 30 31  1  0  0  0  0
 30 45  1  0  0  0  0
M  END
> <PUBCHEM_COMPOUND_CID>
12309864

> <PUBCHEM_CONFORMER_RMSD>
0.8

> <PUBCHEM_CONFORMER_DIVERSEORDER>
1
48
66
37
77
74
45
52
73
22
53
51
35
19
41
38
69
64
67
72
68
18
49
76
60
57
54
65
70
75
46
21
58
36
40
62
34
59
2
50
71
14
20
7
29
33
17
31
47
39
10
32
61
43
63
30
9
24
16
56
28
12
8
55
25
13
11
3
27
42
44
15
23
4
26
6
5

> <PUBCHEM_MMFF94_PARTIAL_CHARGES>
43
1 -0.56
10 -0.53
11 -0.53
12 0.28
13 0.28
14 0.28
15 0.56
16 0.28
17 0.09
18 0.05
19 0.47
2 -0.36
20 0.09
21 0.08
22 0.03
23 0.08
24 -0.15
25 -0.15
26 -0.15
27 -0.15
28 0.08
29 0.08
3 -0.68
30 -0.15
31 0.08
38 0.4
39 0.4
4 -0.68
40 0.4
41 0.15
42 0.15
43 0.15
44 0.15
45 0.15
46 0.45
47 0.45
48 0.45
49 0.45
5 -0.68
6 -0.16
7 -0.57
8 -0.53
9 -0.53

> <PUBCHEM_EFFECTIVE_ROTOR_COUNT>
4.2

> <PUBCHEM_PHARMACOPHORE_FEATURES>
18
1 1 acceptor
1 10 donor
1 11 donor
1 2 acceptor
1 3 acceptor
1 3 donor
1 4 acceptor
1 4 donor
1 5 acceptor
1 5 donor
1 6 acceptor
1 7 acceptor
1 8 donor
1 9 donor
6 1 12 13 14 15 16 rings
6 20 21 23 24 27 28 rings
6 22 25 26 29 30 31 rings
6 6 17 18 19 20 21 rings

> <PUBCHEM_HEAVY_ATOM_COUNT>
31

> <PUBCHEM_ATOM_DEF_STEREO_COUNT>
3

> <PUBCHEM_ATOM_UDEF_STEREO_COUNT>
1

> <PUBCHEM_BOND_DEF_STEREO_COUNT>
0

> <PUBCHEM_BOND_UDEF_STEREO_COUNT>
0

> <PUBCHEM_ISOTOPIC_ATOM_COUNT>
0

> <PUBCHEM_COMPONENT_COUNT>
1

> <PUBCHEM_CACTVS_TAUTO_COUNT>
162

> <PUBCHEM_CONFORMER_ID>
00BBD56800000001

> <PUBCHEM_MMFF94_ENERGY>
99.4925

> <PUBCHEM_FEATURE_SELFOVERLAP>
91.455

> <PUBCHEM_SHAPE_FINGERPRINT>
10190108 129 17403190682187995803
1100329 8 18053108324389162145
11045515 52 18046914779383686348
11115154 58 17342629221311387509
11963148 33 17613713043633779995
12422481 6 18116973667567569600
12788726 201 17686623441871349042
13004483 165 18052247406494280934
131258 43 17987537931028210526
13533116 47 18342736339181361929
13540713 4 18187648038050627355
138480 1 18411983525125887040
140371 6 18341620252319930978
14508225 48 18124597479193714606
14866123 147 17334217827791470395
15230672 131 18049439546952443784
15439362 3 18410006663154048253
15664445 248 18337383847362045594
15775530 1 17825692180834210819
15927050 60 17982450701005775718
167882 2 18338517546618215232
20028762 73 17046276047900047575
20600515 1 17977637858757930224
20642791 13 18055352431725704000
20691752 17 16733251439669977937
20775438 99 18123725777512420319
21120745 212 17840604599934574500
22149856 69 18262531407411062611
22393880 68 18126857211822350605
23559900 14 18411412899934104091
24771750 20 18262813989065392901
3298306 158 18196377133081477844
38695281 34 18197212766456232472
4280585 95 18191299386484268922
460360 51 18338252483181197361
46194498 28 18187362112981422245
495365 180 18199740513238967025
5265222 85 17687474876921857140
532947 4 18341336703459467984
59755656 215 18336545018590092812
6443956 14 18341049627518414240
6669772 16 17984709072009102300
9709674 26 18408886244026298107
9981440 41 18049156967060479241

> <PUBCHEM_SHAPE_MULTIPOLES>
573.4
10.24
5.73
1.16
13.13
0.86
0.12
-1.92
2.78
-9.24
0.19
-0.39
0.5
1.08

> <PUBCHEM_SHAPE_SELFOVERLAP>
1270.166

> <PUBCHEM_SHAPE_VOLUME>
302.6

> <PUBCHEM_COORDINATE_TYPE>
2
5
10

$$$$
