12305639
  -OEChem-09292010363D

 96 97  0     0  0  0  0  0  0999 V2000
   10.4711    2.3483    0.7795 C   0  0  0  0  0  0  0  0  0  0  0  0
  -10.4100    2.4408    0.7733 C   0  0  0  0  0  0  0  0  0  0  0  0
   11.0977    3.7328    0.4583 C   0  0  0  0  0  0  0  0  0  0  0  0
  -10.9828    3.8528    0.4716 C   0  0  0  0  0  0  0  0  0  0  0  0
   10.0447    4.8096    0.2661 C   0  0  0  0  0  0  0  0  0  0  0  0
   -9.8903    4.8958    0.3205 C   0  0  0  0  0  0  0  0  0  0  0  0
    9.2644    2.0428   -0.1388 C   0  0  0  0  0  0  0  0  0  0  0  0
   -9.1994    2.1126   -0.1320 C   0  0  0  0  0  0  0  0  0  0  0  0
    9.1299    4.4430   -0.8928 C   0  0  0  0  0  0  0  0  0  0  0  0
   -8.9686    4.5221   -0.8306 C   0  0  0  0  0  0  0  0  0  0  0  0
    8.6830    2.9951   -0.9110 C   0  0  0  0  0  0  0  0  0  0  0  0
   -8.5722    3.0601   -0.8735 C   0  0  0  0  0  0  0  0  0  0  0  0
   10.0134    2.3340    2.2562 C   0  0  0  0  0  0  0  0  0  0  0  0
   11.6108    1.3144    0.6076 C   0  0  0  0  0  0  0  0  0  0  0  0
  -11.5816    1.4511    0.5606 C   0  0  0  0  0  0  0  0  0  0  0  0
   -9.9785    2.3798    2.2566 C   0  0  0  0  0  0  0  0  0  0  0  0
    8.7763    0.6738   -0.1013 C   0  0  0  0  0  0  0  0  0  0  0  0
   -8.7616    0.7265   -0.1175 C   0  0  0  0  0  0  0  0  0  0  0  0
    7.5393    2.7741   -1.8737 C   0  0  0  0  0  0  0  0  0  0  0  0
   -7.4210    2.8200   -1.8230 C   0  0  0  0  0  0  0  0  0  0  0  0
    7.4710    0.3585   -0.1018 C   0  0  0  0  0  0  0  0  0  0  0  0
   -7.4685    0.3666   -0.1048 C   0  0  0  0  0  0  0  0  0  0  0  0
    6.9068   -0.9910   -0.0691 C   0  0  0  0  0  0  0  0  0  0  0  0
   -6.9488   -1.0011   -0.0959 C   0  0  0  0  0  0  0  0  0  0  0  0
    7.8768   -2.1499   -0.0395 C   0  0  0  0  0  0  0  0  0  0  0  0
   -7.9492   -2.1315   -0.1373 C   0  0  0  0  0  0  0  0  0  0  0  0
    5.5830   -1.2597   -0.0710 C   0  0  0  0  0  0  0  0  0  0  0  0
   -5.6320   -1.2995   -0.0833 C   0  0  0  0  0  0  0  0  0  0  0  0
    4.9231   -2.5526   -0.0404 C   0  0  0  0  0  0  0  0  0  0  0  0
   -4.9973   -2.6027   -0.0735 C   0  0  0  0  0  0  0  0  0  0  0  0
    3.5847   -2.6802   -0.0463 C   0  0  0  0  0  0  0  0  0  0  0  0
   -3.6676   -2.7943   -0.0611 C   0  0  0  0  0  0  0  0  0  0  0  0
    2.8318   -3.9344   -0.0142 C   0  0  0  0  0  0  0  0  0  0  0  0
   -2.9645   -4.0808   -0.0331 C   0  0  0  0  0  0  0  0  0  0  0  0
    3.6142   -5.2252   -0.0038 C   0  0  0  0  0  0  0  0  0  0  0  0
   -3.8095   -5.3296   -0.0387 C   0  0  0  0  0  0  0  0  0  0  0  0
    1.4827   -3.9905   -0.0223 C   0  0  0  0  0  0  0  0  0  0  0  0
   -1.6141   -4.0666   -0.0243 C   0  0  0  0  0  0  0  0  0  0  0  0
    0.6281   -5.1601    0.0064 C   0  0  0  0  0  0  0  0  0  0  0  0
   -0.7152   -5.2049   -0.0019 C   0  0  0  0  0  0  0  0  0  0  0  0
   11.7870    4.0365    1.2565 H   0  0  0  0  0  0  0  0  0  0  0  0
   11.7005    3.6680   -0.4585 H   0  0  0  0  0  0  0  0  0  0  0  0
  -11.5714    3.8283   -0.4563 H   0  0  0  0  0  0  0  0  0  0  0  0
  -11.6751    4.1634    1.2645 H   0  0  0  0  0  0  0  0  0  0  0  0
   10.5262    5.7731    0.0626 H   0  0  0  0  0  0  0  0  0  0  0  0
    9.4579    4.9419    1.1822 H   0  0  0  0  0  0  0  0  0  0  0  0
   -9.3152    4.9882    1.2488 H   0  0  0  0  0  0  0  0  0  0  0  0
  -10.3346    5.8796    0.1299 H   0  0  0  0  0  0  0  0  0  0  0  0
    8.2523    5.1004   -0.8541 H   0  0  0  0  0  0  0  0  0  0  0  0
    9.6450    4.6545   -1.8389 H   0  0  0  0  0  0  0  0  0  0  0  0
   -9.4593    4.7720   -1.7803 H   0  0  0  0  0  0  0  0  0  0  0  0
   -8.0695    5.1472   -0.7628 H   0  0  0  0  0  0  0  0  0  0  0  0
    9.6770    1.3363    2.5619 H   0  0  0  0  0  0  0  0  0  0  0  0
    9.1817    3.0247    2.4324 H   0  0  0  0  0  0  0  0  0  0  0  0
   10.8323    2.6184    2.9268 H   0  0  0  0  0  0  0  0  0  0  0  0
   11.3474    0.3327    1.0159 H   0  0  0  0  0  0  0  0  0  0  0  0
   12.5141    1.6373    1.1391 H   0  0  0  0  0  0  0  0  0  0  0  0
   11.8764    1.1852   -0.4481 H   0  0  0  0  0  0  0  0  0  0  0  0
  -11.3596    0.4526    0.9523 H   0  0  0  0  0  0  0  0  0  0  0  0
  -11.8334    1.3532   -0.5018 H   0  0  0  0  0  0  0  0  0  0  0  0
  -12.4823    1.7943    1.0840 H   0  0  0  0  0  0  0  0  0  0  0  0
   -9.6821    1.3648    2.5463 H   0  0  0  0  0  0  0  0  0  0  0  0
  -10.7984    2.6784    2.9197 H   0  0  0  0  0  0  0  0  0  0  0  0
   -9.1265    3.0371    2.4612 H   0  0  0  0  0  0  0  0  0  0  0  0
    9.5260   -0.1085   -0.1150 H   0  0  0  0  0  0  0  0  0  0  0  0
   -9.5371   -0.0293   -0.1597 H   0  0  0  0  0  0  0  0  0  0  0  0
    7.4877    1.7556   -2.2663 H   0  0  0  0  0  0  0  0  0  0  0  0
    7.6687    3.4105   -2.7578 H   0  0  0  0  0  0  0  0  0  0  0  0
    6.5858    3.0458   -1.4103 H   0  0  0  0  0  0  0  0  0  0  0  0
   -6.4665    3.0480   -1.3387 H   0  0  0  0  0  0  0  0  0  0  0  0
   -7.5137    3.4793   -2.6947 H   0  0  0  0  0  0  0  0  0  0  0  0
   -7.3983    1.8089   -2.2372 H   0  0  0  0  0  0  0  0  0  0  0  0
    6.7204    1.1442   -0.0537 H   0  0  0  0  0  0  0  0  0  0  0  0
   -6.6938    1.1259   -0.0250 H   0  0  0  0  0  0  0  0  0  0  0  0
    7.4468   -3.1496   -0.0048 H   0  0  0  0  0  0  0  0  0  0  0  0
    8.5229   -2.0737    0.8435 H   0  0  0  0  0  0  0  0  0  0  0  0
    8.5125   -2.1278   -0.9328 H   0  0  0  0  0  0  0  0  0  0  0  0
   -8.5907   -2.0946    0.7513 H   0  0  0  0  0  0  0  0  0  0  0  0
   -7.5449   -3.1418   -0.1767 H   0  0  0  0  0  0  0  0  0  0  0  0
   -8.5868   -2.0351   -1.0244 H   0  0  0  0  0  0  0  0  0  0  0  0
    4.9028   -0.4074   -0.0971 H   0  0  0  0  0  0  0  0  0  0  0  0
   -4.9311   -0.4636   -0.0711 H   0  0  0  0  0  0  0  0  0  0  0  0
    5.5293   -3.4467   -0.0087 H   0  0  0  0  0  0  0  0  0  0  0  0
   -5.6351   -3.4760   -0.0617 H   0  0  0  0  0  0  0  0  0  0  0  0
    2.9738   -1.7784   -0.0750 H   0  0  0  0  0  0  0  0  0  0  0  0
   -3.0302   -1.9099   -0.0668 H   0  0  0  0  0  0  0  0  0  0  0  0
    4.2792   -5.2672   -0.8749 H   0  0  0  0  0  0  0  0  0  0  0  0
    4.2310   -5.2803    0.9011 H   0  0  0  0  0  0  0  0  0  0  0  0
    3.0379   -6.1485   -0.0332 H   0  0  0  0  0  0  0  0  0  0  0  0
   -4.4532   -5.3610    0.8476 H   0  0  0  0  0  0  0  0  0  0  0  0
   -3.2306   -6.2553   -0.0345 H   0  0  0  0  0  0  0  0  0  0  0  0
   -4.4404   -5.3631   -0.9340 H   0  0  0  0  0  0  0  0  0  0  0  0
    0.9656   -3.0338   -0.0459 H   0  0  0  0  0  0  0  0  0  0  0  0
   -1.1289   -3.0932   -0.0304 H   0  0  0  0  0  0  0  0  0  0  0  0
    1.1013   -6.1355    0.0368 H   0  0  0  0  0  0  0  0  0  0  0  0
   -1.1614   -6.1945    0.0211 H   0  0  0  0  0  0  0  0  0  0  0  0
  1  3  1  0  0  0  0
  1  7  1  0  0  0  0
  1 13  1  0  0  0  0
  1 14  1  0  0  0  0
  2  4  1  0  0  0  0
  2  8  1  0  0  0  0
  2 15  1  0  0  0  0
  2 16  1  0  0  0  0
  3  5  1  0  0  0  0
  3 41  1  0  0  0  0
  3 42  1  0  0  0  0
  4  6  1  0  0  0  0
  4 43  1  0  0  0  0
  4 44  1  0  0  0  0
  5  9  1  0  0  0  0
  5 45  1  0  0  0  0
  5 46  1  0  0  0  0
  6 10  1  0  0  0  0
  6 47  1  0  0  0  0
  6 48  1  0  0  0  0
  7 11  2  0  0  0  0
  7 17  1  0  0  0  0
  8 12  2  0  0  0  0
  8 18  1  0  0  0  0
  9 11  1  0  0  0  0
  9 49  1  0  0  0  0
  9 50  1  0  0  0  0
 10 12  1  0  0  0  0
 10 51  1  0  0  0  0
 10 52  1  0  0  0  0
 11 19  1  0  0  0  0
 12 20  1  0  0  0  0
 13 53  1  0  0  0  0
 13 54  1  0  0  0  0
 13 55  1  0  0  0  0
 14 56  1  0  0  0  0
 14 57  1  0  0  0  0
 14 58  1  0  0  0  0
 15 59  1  0  0  0  0
 15 60  1  0  0  0  0
 15 61  1  0  0  0  0
 16 62  1  0  0  0  0
 16 63  1  0  0  0  0
 16 64  1  0  0  0  0
 17 21  2  0  0  0  0
 17 65  1  0  0  0  0
 18 22  2  0  0  0  0
 18 66  1  0  0  0  0
 19 67  1  0  0  0  0
 19 68  1  0  0  0  0
 19 69  1  0  0  0  0
 20 70  1  0  0  0  0
 20 71  1  0  0  0  0
 20 72  1  0  0  0  0
 21 23  1  0  0  0  0
 21 73  1  0  0  0  0
 22 24  1  0  0  0  0
 22 74  1  0  0  0  0
 23 25  1  0  0  0  0
 23 27  2  0  0  0  0
 24 26  1  0  0  0  0
 24 28  2  0  0  0  0
 25 75  1  0  0  0  0
 25 76  1  0  0  0  0
 25 77  1  0  0  0  0
 26 78  1  0  0  0  0
 26 79  1  0  0  0  0
 26 80  1  0  0  0  0
 27 29  1  0  0  0  0
 27 81  1  0  0  0  0
 28 30  1  0  0  0  0
 28 82  1  0  0  0  0
 29 31  2  0  0  0  0
 29 83  1  0  0  0  0
 30 32  2  0  0  0  0
 30 84  1  0  0  0  0
 31 33  1  0  0  0  0
 31 85  1  0  0  0  0
 32 34  1  0  0  0  0
 32 86  1  0  0  0  0
 33 35  1  0  0  0  0
 33 37  2  0  0  0  0
 34 36  1  0  0  0  0
 34 38  2  0  0  0  0
 35 87  1  0  0  0  0
 35 88  1  0  0  0  0
 35 89  1  0  0  0  0
 36 90  1  0  0  0  0
 36 91  1  0  0  0  0
 36 92  1  0  0  0  0
 37 39  1  0  0  0  0
 37 93  1  0  0  0  0
 38 40  1  0  0  0  0
 38 94  1  0  0  0  0
 39 40  2  0  0  0  0
 39 95  1  0  0  0  0
 40 96  1  0  0  0  0
M  END
> <PUBCHEM_COMPOUND_CID>
12305639

> <PUBCHEM_CONFORMER_RMSD>
1.2

> <PUBCHEM_CONFORMER_DIVERSEORDER>
1
13
39
9
40
10
41
24
8
42
37
20
32
31
17
4
34
15
11
18
33
12
26
27
22
28
23
25
5
35
3
7
29
2
14
19
30
36
6
38
16
21

> <PUBCHEM_MMFF94_PARTIAL_CHARGES>
46
1 0.14
10 0.14
11 -0.28
12 -0.28
17 -0.15
18 -0.15
19 0.14
2 0.14
20 0.14
21 -0.15
22 -0.15
23 -0.14
24 -0.14
25 0.14
26 0.14
27 -0.15
28 -0.15
29 -0.15
30 -0.15
31 -0.15
32 -0.15
33 -0.14
34 -0.14
35 0.14
36 0.14
37 -0.15
38 -0.15
39 -0.15
40 -0.15
65 0.15
66 0.15
7 -0.14
73 0.15
74 0.15
8 -0.14
81 0.15
82 0.15
83 0.15
84 0.15
85 0.15
86 0.15
9 0.14
93 0.15
94 0.15
95 0.15
96 0.15

> <PUBCHEM_EFFECTIVE_ROTOR_COUNT>
11.6

> <PUBCHEM_PHARMACOPHORE_FEATURES>
8
1 25 hydrophobe
1 26 hydrophobe
1 35 hydrophobe
1 36 hydrophobe
3 1 13 14 hydrophobe
3 2 15 16 hydrophobe
6 1 3 5 7 9 11 rings
6 2 4 6 8 10 12 rings

> <PUBCHEM_HEAVY_ATOM_COUNT>
40

> <PUBCHEM_ATOM_DEF_STEREO_COUNT>
0

> <PUBCHEM_ATOM_UDEF_STEREO_COUNT>
0

> <PUBCHEM_BOND_DEF_STEREO_COUNT>
9

> <PUBCHEM_BOND_UDEF_STEREO_COUNT>
0

> <PUBCHEM_ISOTOPIC_ATOM_COUNT>
0

> <PUBCHEM_COMPONENT_COUNT>
1

> <PUBCHEM_CACTVS_TAUTO_COUNT>
1

> <PUBCHEM_CONFORMER_ID>
00BBC4E700000001

> <PUBCHEM_MMFF94_ENERGY>
108.0786

> <PUBCHEM_FEATURE_SELFOVERLAP>
40.601

> <PUBCHEM_SHAPE_FINGERPRINT>
10952577 141 18272650151568895375
11578821 258 18409729586038712959
131240 88 18335708196152845499
13165054 27 18412259545837368303
13974486 7 9943537280404517830
14201967 126 18410011026613376493
15538507 64 18411694414266900298
18354007 30 18335140929330348955
21057603 308 17988922224499110913
353859 123 18041554746156180420
3918712 181 18339079281465761147
6201320 82 18338248140811031310
6204607 403 18199753553798602713

> <PUBCHEM_SHAPE_MULTIPOLES>
823.18
60.6
10.69
1.18
4.73
5.95
-0.23
-109.33
-9.68
-1.48
0.58
0.1
-1.52
-0.32

> <PUBCHEM_SHAPE_SELFOVERLAP>
1666.193

> <PUBCHEM_SHAPE_VOLUME>
477.5

> <PUBCHEM_COORDINATE_TYPE>
2
5
10

$$$$
