3604942
  -OEChem-09292011353D

 39 40  0     1  0  0  0  0  0999 V2000
   -4.3436    2.2499    0.0391 O   0  0  0  0  0  0  0  0  0  0  0  0
   -1.1961   -0.3911    1.0228 O   0  0  0  0  0  0  0  0  0  0  0  0
   -3.8735   -0.1175    1.6106 O   0  0  0  0  0  0  0  0  0  0  0  0
    3.0769    1.6124    0.2749 O   0  0  0  0  0  0  0  0  0  0  0  0
   -0.1996   -2.8550    0.2182 O   0  0  0  0  0  0  0  0  0  0  0  0
    5.1296    2.5615   -0.0878 O   0  0  0  0  0  0  0  0  0  0  0  0
   -4.4355    0.9321   -0.5102 C   0  0  0  0  0  0  0  0  0  0  0  0
   -3.4480    0.0140    0.2483 C   0  0  1  0  0  0  0  0  0  0  0  0
   -2.0012    0.5127    0.2695 C   0  0  0  0  0  0  0  0  0  0  0  0
   -4.0756    1.0201   -1.9992 C   0  0  0  0  0  0  0  0  0  0  0  0
   -5.8839    0.4547   -0.3604 C   0  0  0  0  0  0  0  0  0  0  0  0
    0.1106   -0.5177    0.6359 C   0  0  0  0  0  0  0  0  0  0  0  0
    0.6066   -1.7562    0.2328 C   0  0  0  0  0  0  0  0  0  0  0  0
    0.9341    0.6020    0.6494 C   0  0  0  0  0  0  0  0  0  0  0  0
    2.7799   -0.7649   -0.1543 C   0  0  0  0  0  0  0  0  0  0  0  0
    2.2623    0.4620    0.2524 C   0  0  0  0  0  0  0  0  0  0  0  0
    1.9415   -1.8818   -0.1628 C   0  0  0  0  0  0  0  0  0  0  0  0
    4.1743   -0.8390   -0.5556 C   0  0  0  0  0  0  0  0  0  0  0  0
    4.9395    0.2552   -0.5311 C   0  0  0  0  0  0  0  0  0  0  0  0
    4.4145    1.5655   -0.1041 C   0  0  0  0  0  0  0  0  0  0  0  0
   -0.9127   -3.1190   -0.9880 C   0  0  0  0  0  0  0  0  0  0  0  0
   -3.4775   -0.9975   -0.1731 H   0  0  0  0  0  0  0  0  0  0  0  0
   -1.9385    1.4926    0.7565 H   0  0  0  0  0  0  0  0  0  0  0  0
   -1.6190    0.6007   -0.7539 H   0  0  0  0  0  0  0  0  0  0  0  0
   -4.0486    0.0302   -2.4659 H   0  0  0  0  0  0  0  0  0  0  0  0
   -3.1095    1.5116   -2.1530 H   0  0  0  0  0  0  0  0  0  0  0  0
   -4.8079    1.6339   -2.5369 H   0  0  0  0  0  0  0  0  0  0  0  0
   -6.5699    1.1234   -0.8932 H   0  0  0  0  0  0  0  0  0  0  0  0
   -6.0138   -0.5589   -0.7533 H   0  0  0  0  0  0  0  0  0  0  0  0
   -6.2054    0.4660    0.6868 H   0  0  0  0  0  0  0  0  0  0  0  0
   -4.6728    2.2215    0.9531 H   0  0  0  0  0  0  0  0  0  0  0  0
   -3.7622    0.7445    2.0456 H   0  0  0  0  0  0  0  0  0  0  0  0
    0.5602    1.5701    0.9691 H   0  0  0  0  0  0  0  0  0  0  0  0
    2.3197   -2.8526   -0.4754 H   0  0  0  0  0  0  0  0  0  0  0  0
    4.5811   -1.7925   -0.8733 H   0  0  0  0  0  0  0  0  0  0  0  0
    5.9813    0.2078   -0.8291 H   0  0  0  0  0  0  0  0  0  0  0  0
   -0.2155   -3.3755   -1.7918 H   0  0  0  0  0  0  0  0  0  0  0  0
   -1.5198   -2.2571   -1.2811 H   0  0  0  0  0  0  0  0  0  0  0  0
   -1.5757   -3.9709   -0.8149 H   0  0  0  0  0  0  0  0  0  0  0  0
  1  7  1  0  0  0  0
  1 31  1  0  0  0  0
  2  9  1  0  0  0  0
  2 12  1  0  0  0  0
  3  8  1  0  0  0  0
  3 32  1  0  0  0  0
  4 16  1  0  0  0  0
  4 20  1  0  0  0  0
  5 13  1  0  0  0  0
  5 21  1  0  0  0  0
  6 20  2  0  0  0  0
  7  8  1  0  0  0  0
  7 10  1  0  0  0  0
  7 11  1  0  0  0  0
  8  9  1  0  0  0  0
  8 22  1  0  0  0  0
  9 23  1  0  0  0  0
  9 24  1  0  0  0  0
 10 25  1  0  0  0  0
 10 26  1  0  0  0  0
 10 27  1  0  0  0  0
 11 28  1  0  0  0  0
 11 29  1  0  0  0  0
 11 30  1  0  0  0  0
 12 13  2  0  0  0  0
 12 14  1  0  0  0  0
 13 17  1  0  0  0  0
 14 16  2  0  0  0  0
 14 33  1  0  0  0  0
 15 16  1  0  0  0  0
 15 17  2  0  0  0  0
 15 18  1  0  0  0  0
 17 34  1  0  0  0  0
 18 19  2  0  0  0  0
 18 35  1  0  0  0  0
 19 20  1  0  0  0  0
 19 36  1  0  0  0  0
 21 37  1  0  0  0  0
 21 38  1  0  0  0  0
 21 39  1  0  0  0  0
M  END
> <PUBCHEM_COMPOUND_CID>
3604942

> <PUBCHEM_CONFORMER_RMSD>
0.8

> <PUBCHEM_CONFORMER_DIVERSEORDER>
1
24
72
59
75
47
67
36
45
40
76
28
6
70
57
71
51
73
61
34
69
37
18
43
74
52
7
64
38
58
33
49
53
29
26
56
16
21
35
10
68
66
13
22
41
55
20
42
30
9
2
63
60
4
17
3
23
54
15
48
25
65
8
39
19
62
32
14
27
12
50
46
11
44
31
5

> <PUBCHEM_MMFF94_PARTIAL_CHARGES>
25
1 -0.68
12 0.08
13 0.08
14 -0.15
15 0.03
16 0.08
17 -0.15
18 -0.18
19 -0.14
2 -0.36
20 0.71
21 0.28
3 -0.68
31 0.4
32 0.4
33 0.15
34 0.15
35 0.15
36 0.15
4 -0.23
5 -0.36
6 -0.57
7 0.28
8 0.28
9 0.28

> <PUBCHEM_EFFECTIVE_ROTOR_COUNT>
5

> <PUBCHEM_PHARMACOPHORE_FEATURES>
10
1 1 acceptor
1 1 donor
1 2 acceptor
1 3 acceptor
1 3 donor
1 5 acceptor
1 6 acceptor
3 7 10 11 hydrophobe
6 12 13 14 15 16 17 rings
6 4 15 16 18 19 20 rings

> <PUBCHEM_HEAVY_ATOM_COUNT>
21

> <PUBCHEM_ATOM_DEF_STEREO_COUNT>
0

> <PUBCHEM_ATOM_UDEF_STEREO_COUNT>
1

> <PUBCHEM_BOND_DEF_STEREO_COUNT>
0

> <PUBCHEM_BOND_UDEF_STEREO_COUNT>
0

> <PUBCHEM_ISOTOPIC_ATOM_COUNT>
0

> <PUBCHEM_COMPONENT_COUNT>
1

> <PUBCHEM_CACTVS_TAUTO_COUNT>
1

> <PUBCHEM_CONFORMER_ID>
003701CE00000001

> <PUBCHEM_MMFF94_ENERGY>
83.4831

> <PUBCHEM_FEATURE_SELFOVERLAP>
50.788

> <PUBCHEM_SHAPE_FINGERPRINT>
10411042 1 17617942431179547306
10693767 8 17844250623342311430
11578080 2 16269945938465035570
11796584 16 13470682629421226613
12236239 1 17418094282875267833
12403259 415 18261968400251552416
12670546 177 18060134345080842191
12730499 353 18335145263104681539
12969540 114 18335692849632797205
13103583 49 11386365890203800349
13540713 4 18198356246112766330
13583140 156 17749112209555816690
14251757 5 17630308964953417159
14528608 73 18411979148512137949
15885798 251 9511462229664157775
18186145 218 18272657835048479674
193927 3 11887955483786011196
200 152 17988922228377417425
20645477 56 18336267967555849272
20645477 70 18339924792600255467
21033648 29 18336542806544694672
221357 26 18342734088202228641
22182313 1 18267047065977933786
231179 274 18040715848826981224
23227448 37 18339081621932053350
23402539 116 17775290430367325584
23402655 69 18344145877820947684
23557571 272 17313399881137781451
23559900 14 18131358527429257570
2838139 119 18261103058788783381
3060560 45 18340204090086491638
335352 9 18411422800619783022
3759504 43 18260831530925045427
495365 180 17489298737890078904
5104073 3 17968100776703342569
53917941 68 18268698584198309886
633830 44 17987534627449331291

> <PUBCHEM_SHAPE_MULTIPOLES>
396.95
11.88
2.63
1.09
4.86
1.33
-0.21
-8.14
-2.57
-1.23
-0.46
1.19
-0.02
0.43

> <PUBCHEM_SHAPE_SELFOVERLAP>
835.668

> <PUBCHEM_SHAPE_VOLUME>
225.1

> <PUBCHEM_COORDINATE_TYPE>
2
5
10

$$$$
