73412
  -OEChem-09302003003D

 84 88  0     1  0  0  0  0  0999 V2000
   -2.7496    2.7902    0.0361 O   0  0  0  0  0  0  0  0  0  0  0  0
   -6.7091   -1.1428    0.0479 O   0  0  0  0  0  0  0  0  0  0  0  0
   -5.0550   -3.0633   -1.1274 O   0  0  0  0  0  0  0  0  0  0  0  0
   -4.7606   -0.2639    2.8191 O   0  0  0  0  0  0  0  0  0  0  0  0
    4.5518    2.9497   -0.8432 O   0  0  0  0  0  0  0  0  0  0  0  0
    3.3507    1.5522   -2.1851 O   0  0  0  0  0  0  0  0  0  0  0  0
   -0.2316    0.8818    0.0855 C   0  0  2  0  0  0  0  0  0  0  0  0
   -0.9912   -0.3481   -0.5381 C   0  0  1  0  0  0  0  0  0  0  0  0
   -2.5573   -0.1881   -0.8289 C   0  0  2  0  0  0  0  0  0  0  0  0
    1.2261    0.3605    0.6441 C   0  0  1  0  0  0  0  0  0  0  0  0
   -3.2298    0.3987    0.4710 C   0  0  1  0  0  0  0  0  0  0  0  0
   -1.0771    1.5014    1.2359 C   0  0  0  0  0  0  0  0  0  0  0  0
   -2.5662    1.7178    0.9413 C   0  0  1  0  0  0  0  0  0  0  0  0
   -4.8106    0.3691    0.5153 C   0  0  1  0  0  0  0  0  0  0  0  0
    1.9672   -0.4354   -0.4539 C   0  0  0  0  0  0  0  0  0  0  0  0
    3.4991   -0.5851   -0.4114 C   0  0  1  0  0  0  0  0  0  0  0  0
   -3.1452   -1.6157   -1.0535 C   0  0  0  0  0  0  0  0  0  0  0  0
   -0.1790   -0.9388   -1.7122 C   0  0  0  0  0  0  0  0  0  0  0  0
    2.0702    1.5755    1.1415 C   0  0  0  0  0  0  0  0  0  0  0  0
    4.1738    0.7600   -0.0364 C   0  0  1  0  0  0  0  0  0  0  0  0
   -0.0030    1.9863   -0.9929 C   0  0  0  0  0  0  0  0  0  0  0  0
    3.5757    1.3191    1.2667 C   0  0  0  0  0  0  0  0  0  0  0  0
   -5.2875   -1.0856    0.2036 C   0  0  2  0  0  0  0  0  0  0  0  0
   -4.6732   -1.6842   -1.0608 C   0  0  2  0  0  0  0  0  0  0  0  0
   -2.8543    0.6159   -2.1178 C   0  0  0  0  0  0  0  0  0  0  0  0
    1.3013   -0.9844   -1.4893 C   0  0  0  0  0  0  0  0  0  0  0  0
    1.0692   -0.6025    1.8585 C   0  0  0  0  0  0  0  0  0  0  0  0
    4.0080   -1.7916    0.4536 C   0  0  2  0  0  0  0  0  0  0  0  0
    5.7049    0.6209    0.0658 C   0  0  0  0  0  0  0  0  0  0  0  0
   -5.2895    0.7128    1.9560 C   0  0  0  0  0  0  0  0  0  0  0  0
    5.5593   -1.8686    0.4393 C   0  0  1  0  0  0  0  0  0  0  0  0
   -5.5080    1.3911   -0.4051 C   0  0  0  0  0  0  0  0  0  0  0  0
    6.1599   -0.5455    0.9272 C   0  0  0  0  0  0  0  0  0  0  0  0
    3.9632    1.7679   -1.1498 C   0  0  0  0  0  0  0  0  0  0  0  0
    3.3820   -3.1192   -0.0041 C   0  0  0  0  0  0  0  0  0  0  0  0
    6.1152   -3.0081    1.3015 C   0  0  0  0  0  0  0  0  0  0  0  0
   -0.9635   -1.1211    0.2417 H   0  0  0  0  0  0  0  0  0  0  0  0
   -2.9388   -0.3252    1.2508 H   0  0  0  0  0  0  0  0  0  0  0  0
   -0.6297    2.4540    1.5462 H   0  0  0  0  0  0  0  0  0  0  0  0
   -1.0533    0.8518    2.1134 H   0  0  0  0  0  0  0  0  0  0  0  0
   -3.0101    2.0415    1.8861 H   0  0  0  0  0  0  0  0  0  0  0  0
    3.8312   -0.8207   -1.4360 H   0  0  0  0  0  0  0  0  0  0  0  0
   -2.7734   -2.2968   -0.2750 H   0  0  0  0  0  0  0  0  0  0  0  0
   -2.7791   -2.0406   -1.9972 H   0  0  0  0  0  0  0  0  0  0  0  0
   -0.3295   -0.3696   -2.6328 H   0  0  0  0  0  0  0  0  0  0  0  0
   -0.5166   -1.9619   -1.9117 H   0  0  0  0  0  0  0  0  0  0  0  0
    1.6943    1.9162    2.1150 H   0  0  0  0  0  0  0  0  0  0  0  0
    1.9607    2.4354    0.4777 H   0  0  0  0  0  0  0  0  0  0  0  0
    0.7918    1.7326   -1.6972 H   0  0  0  0  0  0  0  0  0  0  0  0
   -0.8861    2.1806   -1.5950 H   0  0  0  0  0  0  0  0  0  0  0  0
    0.2550    2.9498   -0.5410 H   0  0  0  0  0  0  0  0  0  0  0  0
    4.0624    2.2613    1.5501 H   0  0  0  0  0  0  0  0  0  0  0  0
    3.7580    0.6341    2.1019 H   0  0  0  0  0  0  0  0  0  0  0  0
   -5.0474   -1.7637    1.0318 H   0  0  0  0  0  0  0  0  0  0  0  0
   -5.0962   -1.2185   -1.9552 H   0  0  0  0  0  0  0  0  0  0  0  0
   -2.1659    0.3743   -2.9296 H   0  0  0  0  0  0  0  0  0  0  0  0
   -3.8374    0.3930   -2.5349 H   0  0  0  0  0  0  0  0  0  0  0  0
   -2.8289    1.6946   -1.9827 H   0  0  0  0  0  0  0  0  0  0  0  0
    1.8597   -1.5170   -2.2565 H   0  0  0  0  0  0  0  0  0  0  0  0
    0.5586   -1.5340    1.5979 H   0  0  0  0  0  0  0  0  0  0  0  0
    2.0321   -0.8870    2.2850 H   0  0  0  0  0  0  0  0  0  0  0  0
    0.5359   -0.1445    2.6944 H   0  0  0  0  0  0  0  0  0  0  0  0
    3.7138   -1.6446    1.4957 H   0  0  0  0  0  0  0  0  0  0  0  0
    6.1560    1.5377    0.4675 H   0  0  0  0  0  0  0  0  0  0  0  0
    6.1338    0.4924   -0.9384 H   0  0  0  0  0  0  0  0  0  0  0  0
    5.8938   -2.0412   -0.5927 H   0  0  0  0  0  0  0  0  0  0  0  0
   -4.9827    1.7088    2.2846 H   0  0  0  0  0  0  0  0  0  0  0  0
   -6.3818    0.6794    2.0326 H   0  0  0  0  0  0  0  0  0  0  0  0
   -6.5896    1.4116   -0.2227 H   0  0  0  0  0  0  0  0  0  0  0  0
   -5.1524    2.4092   -0.2271 H   0  0  0  0  0  0  0  0  0  0  0  0
   -5.3887    1.1677   -1.4638 H   0  0  0  0  0  0  0  0  0  0  0  0
    7.2553   -0.5990    0.8936 H   0  0  0  0  0  0  0  0  0  0  0  0
    5.8898   -0.3684    1.9753 H   0  0  0  0  0  0  0  0  0  0  0  0
   -2.3102    3.5736    0.4082 H   0  0  0  0  0  0  0  0  0  0  0  0
    2.2905   -3.0943    0.0620 H   0  0  0  0  0  0  0  0  0  0  0  0
    3.6609   -3.3517   -1.0370 H   0  0  0  0  0  0  0  0  0  0  0  0
    3.6967   -3.9530    0.6299 H   0  0  0  0  0  0  0  0  0  0  0  0
   -7.1105   -0.9944    0.9200 H   0  0  0  0  0  0  0  0  0  0  0  0
   -4.6926   -3.5167   -0.3472 H   0  0  0  0  0  0  0  0  0  0  0  0
    5.8719   -3.9868    0.8777 H   0  0  0  0  0  0  0  0  0  0  0  0
    7.2079   -2.9539    1.3615 H   0  0  0  0  0  0  0  0  0  0  0  0
    5.7188   -2.9645    2.3213 H   0  0  0  0  0  0  0  0  0  0  0  0
   -5.0659   -0.0527    3.7177 H   0  0  0  0  0  0  0  0  0  0  0  0
    4.4262    3.6160   -1.5521 H   0  0  0  0  0  0  0  0  0  0  0  0
  1 13  1  0  0  0  0
  1 74  1  0  0  0  0
  2 23  1  0  0  0  0
  2 78  1  0  0  0  0
  3 24  1  0  0  0  0
  3 79  1  0  0  0  0
  4 30  1  0  0  0  0
  4 83  1  0  0  0  0
  5 34  1  0  0  0  0
  5 84  1  0  0  0  0
  6 34  2  0  0  0  0
  7  8  1  0  0  0  0
  7 10  1  0  0  0  0
  7 12  1  0  0  0  0
  7 21  1  0  0  0  0
  8  9  1  0  0  0  0
  8 18  1  0  0  0  0
  8 37  1  0  0  0  0
  9 11  1  0  0  0  0
  9 17  1  0  0  0  0
  9 25  1  0  0  0  0
 10 15  1  0  0  0  0
 10 19  1  0  0  0  0
 10 27  1  0  0  0  0
 11 13  1  0  0  0  0
 11 14  1  0  0  0  0
 11 38  1  0  0  0  0
 12 13  1  0  0  0  0
 12 39  1  0  0  0  0
 12 40  1  0  0  0  0
 13 41  1  0  0  0  0
 14 23  1  0  0  0  0
 14 30  1  0  0  0  0
 14 32  1  0  0  0  0
 15 16  1  0  0  0  0
 15 26  2  0  0  0  0
 16 20  1  0  0  0  0
 16 28  1  0  0  0  0
 16 42  1  0  0  0  0
 17 24  1  0  0  0  0
 17 43  1  0  0  0  0
 17 44  1  0  0  0  0
 18 26  1  0  0  0  0
 18 45  1  0  0  0  0
 18 46  1  0  0  0  0
 19 22  1  0  0  0  0
 19 47  1  0  0  0  0
 19 48  1  0  0  0  0
 20 22  1  0  0  0  0
 20 29  1  0  0  0  0
 20 34  1  0  0  0  0
 21 49  1  0  0  0  0
 21 50  1  0  0  0  0
 21 51  1  0  0  0  0
 22 52  1  0  0  0  0
 22 53  1  0  0  0  0
 23 24  1  0  0  0  0
 23 54  1  0  0  0  0
 24 55  1  0  0  0  0
 25 56  1  0  0  0  0
 25 57  1  0  0  0  0
 25 58  1  0  0  0  0
 26 59  1  0  0  0  0
 27 60  1  0  0  0  0
 27 61  1  0  0  0  0
 27 62  1  0  0  0  0
 28 31  1  0  0  0  0
 28 35  1  0  0  0  0
 28 63  1  0  0  0  0
 29 33  1  0  0  0  0
 29 64  1  0  0  0  0
 29 65  1  0  0  0  0
 30 67  1  0  0  0  0
 30 68  1  0  0  0  0
 31 33  1  0  0  0  0
 31 36  1  0  0  0  0
 31 66  1  0  0  0  0
 32 69  1  0  0  0  0
 32 70  1  0  0  0  0
 32 71  1  0  0  0  0
 33 72  1  0  0  0  0
 33 73  1  0  0  0  0
 35 75  1  0  0  0  0
 35 76  1  0  0  0  0
 35 77  1  0  0  0  0
 36 80  1  0  0  0  0
 36 81  1  0  0  0  0
 36 82  1  0  0  0  0
M  END
> <PUBCHEM_COMPOUND_CID>
73412

> <PUBCHEM_CONFORMER_RMSD>
0.8

> <PUBCHEM_CONFORMER_DIVERSEORDER>
1

> <PUBCHEM_MMFF94_PARTIAL_CHARGES>
23
1 -0.68
10 0.14
13 0.28
15 -0.28
16 0.14
18 0.14
2 -0.68
20 0.06
23 0.28
24 0.28
26 -0.29
3 -0.68
30 0.28
34 0.66
4 -0.68
5 -0.65
59 0.15
6 -0.57
74 0.4
78 0.4
79 0.4
83 0.4
84 0.5

> <PUBCHEM_EFFECTIVE_ROTOR_COUNT>
4.6

> <PUBCHEM_PHARMACOPHORE_FEATURES>
16
1 1 acceptor
1 1 donor
1 2 acceptor
1 2 donor
1 3 acceptor
1 3 donor
1 4 acceptor
1 4 donor
1 5 acceptor
1 6 acceptor
3 5 6 34 anion
6 10 15 16 19 20 22 rings
6 16 20 28 29 31 33 rings
6 7 8 10 15 18 26 rings
6 7 8 9 11 12 13 rings
6 9 11 14 17 23 24 rings

> <PUBCHEM_HEAVY_ATOM_COUNT>
36

> <PUBCHEM_ATOM_DEF_STEREO_COUNT>
13

> <PUBCHEM_ATOM_UDEF_STEREO_COUNT>
0

> <PUBCHEM_BOND_DEF_STEREO_COUNT>
0

> <PUBCHEM_BOND_UDEF_STEREO_COUNT>
0

> <PUBCHEM_ISOTOPIC_ATOM_COUNT>
0

> <PUBCHEM_COMPONENT_COUNT>
1

> <PUBCHEM_CACTVS_TAUTO_COUNT>
1

> <PUBCHEM_CONFORMER_ID>
00011EC400000001

> <PUBCHEM_MMFF94_ENERGY>
164.1816

> <PUBCHEM_FEATURE_SELFOVERLAP>
81.344

> <PUBCHEM_SHAPE_FINGERPRINT>
10595046 47 18410855494846927684
11756154 67 17624705553383271654
12107183 9 17836932196046656442
12166972 35 18260829310996587732
12236239 1 18409448085350395896
12422481 6 17988366957556340070
12616971 3 18408889529069143756
12633257 1 17846782875634097115
12788726 201 17275114907412016936
13224815 77 17988924470060176068
13533116 47 18261111881326498064
13726171 33 17416141692011590928
13782708 43 17312821550648290314
14341114 328 18202006529351950439
14790565 3 17703516596165711553
14849402 71 18271517719823696320
14856354 85 18201726205864267007
15131766 46 18118130396755483557
15183329 4 18131635594687899554
15238133 3 16916793937453587905
15250474 111 18343577460480270999
15788980 27 18187083944607250477
15799311 1 18339089271095123643
1601671 61 17417820542765515524
17349148 13 18259987084862532868
17844677 252 18261112941635112533
17857418 61 18342453733662895011
1813 80 18114184146591041725
19319366 153 18411414042575324454
19377110 9 18343023302424501162
20511986 3 18342444941896261183
21033648 29 16370997538305678724
21223535 225 16733812096158349685
21267235 1 18272651209000923974
22393880 68 17168411680159474372
23522609 53 18127157305382920113
23559900 14 18271230664861190793
23569914 152 16233872864496802783
23569943 247 17315341532314926482
3004659 81 18272375256966722526
3411729 13 16700877484148407320
34797466 226 16515687787815137261
350125 39 18343578534553890916
3633792 109 18114166533315484095
3680242 22 18059582351752763410
392239 28 18341616997025091699
4015057 19 17968661634981511137
439807 62 18411133662978635627
460360 51 17985278382144287888
46194498 28 17313105263714094124
5104073 3 17846493759567935827
513202 73 18261111812422586833
6086070 43 17488722546273304921
70251023 43 17967808306889824080
7495541 125 18202560692044825600

> <PUBCHEM_SHAPE_MULTIPOLES>
705.65
15.38
2.87
1.84
1.79
0.77
0.21
5.5
3.45
-1.73
-0.3
0.91
-0.17
-2.22

> <PUBCHEM_SHAPE_SELFOVERLAP>
1501.322

> <PUBCHEM_SHAPE_VOLUME>
385.7

> <PUBCHEM_COORDINATE_TYPE>
2
5
10

$$$$
