49844493
  -OEChem-09292014513D

 69 74  0     1  0  0  0  0  0999 V2000
    0.1783   -1.3298    0.5309 O   0  0  0  0  0  0  0  0  0  0  0  0
    2.6714    2.3665   -1.4075 O   0  0  0  0  0  0  0  0  0  0  0  0
    4.8803   -1.2218    0.7919 O   0  0  0  0  0  0  0  0  0  0  0  0
    3.3936   -3.2982    1.3469 O   0  0  0  0  0  0  0  0  0  0  0  0
    6.0987    0.5642   -0.7549 O   0  0  0  0  0  0  0  0  0  0  0  0
   -3.2077   -0.8220   -0.8494 C   0  0  2  0  0  0  0  0  0  0  0  0
   -4.3811   -0.1624   -0.1688 C   0  0  0  0  0  0  0  0  0  0  0  0
   -4.0065   -1.5747    0.1883 C   0  0  2  0  0  0  0  0  0  0  0  0
   -1.7938   -0.4061   -0.5057 C   0  0  1  0  0  0  0  0  0  0  0  0
   -0.8300   -1.6141   -0.4583 C   0  0  2  0  0  0  0  0  0  0  0  0
   -1.1315    0.5438   -1.5352 C   0  0  2  0  0  0  0  0  0  0  0  0
   -3.3487   -1.9000    1.4924 C   0  0  0  0  0  0  0  0  0  0  0  0
   -1.4724   -2.9725   -0.0045 C   0  0  2  0  0  0  0  0  0  0  0  0
   -0.3059   -1.7517   -1.9139 C   0  0  0  0  0  0  0  0  0  0  0  0
   -0.6233   -0.4325   -2.6221 C   0  0  0  0  0  0  0  0  0  0  0  0
   -2.2310   -2.9382    1.3466 C   0  0  0  0  0  0  0  0  0  0  0  0
   -5.6448    0.1075   -0.9132 C   0  0  0  0  0  0  0  0  0  0  0  0
   -4.0655    0.8948    0.8361 C   0  0  0  0  0  0  0  0  0  0  0  0
    0.0887    1.3602   -0.9433 C   0  0  2  0  0  0  0  0  0  0  0  0
   -2.1221    1.5460   -2.1706 C   0  0  0  0  0  0  0  0  0  0  0  0
   -0.4404   -4.1133    0.0636 C   0  0  0  0  0  0  0  0  0  0  0  0
    1.3241    0.5750   -0.5078 C   0  0  0  0  0  0  0  0  0  0  0  0
    1.3015   -0.6456    0.1762 C   0  0  0  0  0  0  0  0  0  0  0  0
   -0.3414    2.2669    0.1783 C   0  0  0  0  0  0  0  0  0  0  0  0
    2.5838    1.1646   -0.7553 C   0  0  0  0  0  0  0  0  0  0  0  0
    2.4955   -1.2323    0.6234 C   0  0  0  0  0  0  0  0  0  0  0  0
   -0.7473    3.5726   -0.0969 C   0  0  0  0  0  0  0  0  0  0  0  0
   -0.3339    1.8013    1.4930 C   0  0  0  0  0  0  0  0  0  0  0  0
    3.7706    0.5637   -0.3338 C   0  0  0  0  0  0  0  0  0  0  0  0
    3.7255   -0.6362    0.3615 C   0  0  0  0  0  0  0  0  0  0  0  0
    2.4765   -2.4782    1.3852 C   0  0  0  0  0  0  0  0  0  0  0  0
   -1.1458    4.4130    0.9428 C   0  0  0  0  0  0  0  0  0  0  0  0
   -0.7323    2.6413    2.5327 C   0  0  0  0  0  0  0  0  0  0  0  0
   -1.1383    3.9473    2.2576 C   0  0  0  0  0  0  0  0  0  0  0  0
    5.0551    1.2006   -0.6062 C   0  0  0  0  0  0  0  0  0  0  0  0
   -3.3205   -1.1618   -1.8725 H   0  0  0  0  0  0  0  0  0  0  0  0
   -4.6381   -2.3827   -0.1630 H   0  0  0  0  0  0  0  0  0  0  0  0
   -1.7691    0.0526    0.4709 H   0  0  0  0  0  0  0  0  0  0  0  0
   -4.1101   -2.2935    2.1777 H   0  0  0  0  0  0  0  0  0  0  0  0
   -2.9218   -1.0461    2.0181 H   0  0  0  0  0  0  0  0  0  0  0  0
   -2.1951   -3.2788   -0.7736 H   0  0  0  0  0  0  0  0  0  0  0  0
    0.7622   -1.9843   -1.9694 H   0  0  0  0  0  0  0  0  0  0  0  0
   -0.8276   -2.5502   -2.4556 H   0  0  0  0  0  0  0  0  0  0  0  0
   -1.3984   -0.6186   -3.3764 H   0  0  0  0  0  0  0  0  0  0  0  0
    0.2471   -0.0477   -3.1651 H   0  0  0  0  0  0  0  0  0  0  0  0
   -2.6836   -3.9286    1.4951 H   0  0  0  0  0  0  0  0  0  0  0  0
   -1.5237   -2.8116    2.1764 H   0  0  0  0  0  0  0  0  0  0  0  0
   -5.8519   -0.6732   -1.6534 H   0  0  0  0  0  0  0  0  0  0  0  0
   -3.9783    1.8679    0.3407 H   0  0  0  0  0  0  0  0  0  0  0  0
   -3.1931    0.7979    1.4757 H   0  0  0  0  0  0  0  0  0  0  0  0
   -4.9127    0.9836    1.5288 H   0  0  0  0  0  0  0  0  0  0  0  0
   -5.5836    1.0613   -1.4478 H   0  0  0  0  0  0  0  0  0  0  0  0
   -6.4983    0.1503   -0.2286 H   0  0  0  0  0  0  0  0  0  0  0  0
    0.3981    1.9875   -1.7905 H   0  0  0  0  0  0  0  0  0  0  0  0
   -1.6101    2.2162   -2.8706 H   0  0  0  0  0  0  0  0  0  0  0  0
   -2.8989    1.0361   -2.7512 H   0  0  0  0  0  0  0  0  0  0  0  0
   -2.6351    2.1581   -1.4270 H   0  0  0  0  0  0  0  0  0  0  0  0
   -0.9533   -5.0772    0.1613 H   0  0  0  0  0  0  0  0  0  0  0  0
    0.1745   -4.1664   -0.8392 H   0  0  0  0  0  0  0  0  0  0  0  0
    0.2192   -4.0159    0.9270 H   0  0  0  0  0  0  0  0  0  0  0  0
   -0.7498    3.9559   -1.1136 H   0  0  0  0  0  0  0  0  0  0  0  0
   -0.0399    0.8021    1.7813 H   0  0  0  0  0  0  0  0  0  0  0  0
    1.5904   -2.6666    2.0122 H   0  0  0  0  0  0  0  0  0  0  0  0
   -1.4600    5.4303    0.7288 H   0  0  0  0  0  0  0  0  0  0  0  0
   -0.7291    2.2789    3.5565 H   0  0  0  0  0  0  0  0  0  0  0  0
    1.9773    2.9597   -1.0767 H   0  0  0  0  0  0  0  0  0  0  0  0
   -1.4488    4.6013    3.0671 H   0  0  0  0  0  0  0  0  0  0  0  0
    5.0550    2.2964   -0.7296 H   0  0  0  0  0  0  0  0  0  0  0  0
    5.6433   -0.6406    0.6492 H   0  0  0  0  0  0  0  0  0  0  0  0
  1 10  1  0  0  0  0
  1 23  1  0  0  0  0
  2 25  1  0  0  0  0
  2 66  1  0  0  0  0
  3 30  1  0  0  0  0
  3 69  1  0  0  0  0
  4 31  2  0  0  0  0
  5 35  2  0  0  0  0
  6  7  1  0  0  0  0
  6  8  1  0  0  0  0
  6  9  1  0  0  0  0
  6 36  1  0  0  0  0
  7  8  1  0  0  0  0
  7 17  1  0  0  0  0
  7 18  1  0  0  0  0
  8 12  1  0  0  0  0
  8 37  1  0  0  0  0
  9 10  1  0  0  0  0
  9 11  1  0  0  0  0
  9 38  1  0  0  0  0
 10 13  1  0  0  0  0
 10 14  1  0  0  0  0
 11 15  1  0  0  0  0
 11 19  1  0  0  0  0
 11 20  1  0  0  0  0
 12 16  1  0  0  0  0
 12 39  1  0  0  0  0
 12 40  1  0  0  0  0
 13 16  1  0  0  0  0
 13 21  1  0  0  0  0
 13 41  1  0  0  0  0
 14 15  1  0  0  0  0
 14 42  1  0  0  0  0
 14 43  1  0  0  0  0
 15 44  1  0  0  0  0
 15 45  1  0  0  0  0
 16 46  1  0  0  0  0
 16 47  1  0  0  0  0
 17 48  1  0  0  0  0
 17 52  1  0  0  0  0
 17 53  1  0  0  0  0
 18 49  1  0  0  0  0
 18 50  1  0  0  0  0
 18 51  1  0  0  0  0
 19 22  1  0  0  0  0
 19 24  1  0  0  0  0
 19 54  1  0  0  0  0
 20 55  1  0  0  0  0
 20 56  1  0  0  0  0
 20 57  1  0  0  0  0
 21 58  1  0  0  0  0
 21 59  1  0  0  0  0
 21 60  1  0  0  0  0
 22 23  1  0  0  0  0
 22 25  2  0  0  0  0
 23 26  2  0  0  0  0
 24 27  2  0  0  0  0
 24 28  1  0  0  0  0
 25 29  1  0  0  0  0
 26 30  1  0  0  0  0
 26 31  1  0  0  0  0
 27 32  1  0  0  0  0
 27 61  1  0  0  0  0
 28 33  2  0  0  0  0
 28 62  1  0  0  0  0
 29 30  2  0  0  0  0
 29 35  1  0  0  0  0
 31 63  1  0  0  0  0
 32 34  2  0  0  0  0
 32 64  1  0  0  0  0
 33 34  1  0  0  0  0
 33 65  1  0  0  0  0
 34 67  1  0  0  0  0
 35 68  1  0  0  0  0
M  END
> <PUBCHEM_COMPOUND_CID>
49844493

> <PUBCHEM_CONFORMER_RMSD>
0.8

> <PUBCHEM_CONFORMER_DIVERSEORDER>
1

> <PUBCHEM_MMFF94_PARTIAL_CHARGES>
39
1 -0.36
10 0.28
12 0.09
17 0.09
18 0.09
19 0.29
2 -0.53
22 -0.14
23 0.08
24 -0.14
25 0.08
26 0.09
27 -0.15
28 -0.15
29 0.09
3 -0.53
30 0.08
31 0.42
32 -0.15
33 -0.15
34 -0.15
35 0.42
36 0.1
37 0.1
4 -0.57
5 -0.57
6 -0.19
61 0.15
62 0.15
63 0.06
64 0.15
65 0.15
66 0.45
67 0.15
68 0.06
69 0.45
7 -0.19
8 -0.19
9 0.09

> <PUBCHEM_EFFECTIVE_ROTOR_COUNT>
4.6

> <PUBCHEM_PHARMACOPHORE_FEATURES>
11
1 1 acceptor
1 2 donor
1 3 donor
1 4 acceptor
1 5 acceptor
3 7 17 18 hydrophobe
5 9 10 11 14 15 rings
6 22 23 25 26 29 30 rings
6 24 27 28 32 33 34 rings
7 1 9 10 11 19 22 23 rings
7 6 8 9 10 12 13 16 rings

> <PUBCHEM_HEAVY_ATOM_COUNT>
35

> <PUBCHEM_ATOM_DEF_STEREO_COUNT>
7

> <PUBCHEM_ATOM_UDEF_STEREO_COUNT>
0

> <PUBCHEM_BOND_DEF_STEREO_COUNT>
0

> <PUBCHEM_BOND_UDEF_STEREO_COUNT>
0

> <PUBCHEM_ISOTOPIC_ATOM_COUNT>
0

> <PUBCHEM_COMPONENT_COUNT>
1

> <PUBCHEM_CACTVS_TAUTO_COUNT>
17

> <PUBCHEM_CONFORMER_ID>
02F8910D00000001

> <PUBCHEM_MMFF94_ENERGY>
168.9867

> <PUBCHEM_FEATURE_SELFOVERLAP>
57.513

> <PUBCHEM_SHAPE_FINGERPRINT>
10006869 2 18270954644392900801
10863032 1 18041847349460881183
10930396 42 17984105341230092120
1100329 8 18266182914273255372
11513181 2 18058173825728752911
11578080 2 17912635006196457889
12156800 1 17328644549168756210
12633257 1 17911829034694225931
12655364 131 16968828102153658122
12788726 201 18272089357667450616
13140716 1 18265324196176927810
14787075 74 18338506474561752703
14790565 3 17608101076281734324
14955137 171 17913509083591383087
15439362 3 17049094663379923704
16945 1 18041270058374424879
17974551 9 17900270998348409155
17980427 23 16843909631363355353
19319366 153 18264203780885332454
20600515 1 17913801506513408733
20775438 99 16973032011906389119
22121540 332 14044615489087348403
23558518 356 17910399385561155197
23559900 14 18041554840676387348
24893992 56 18413392043562874833
283562 15 18270965639556573377
345986 75 18265879303150918827
3493558 16 18049154476227158997
35225 105 17631170779667592185
392239 28 18196933494966797112
469060 322 18041006154489346900
57527306 92 17561084722338531857
57527573 199 18127717971035712281
6086070 43 18201145672915797615
7226269 152 18343308084341796604

> <PUBCHEM_SHAPE_MULTIPOLES>
690.94
8.32
4.83
2.02
5.29
1.84
-0.09
-1.77
-0.59
-1.08
2.83
-0.63
0.71
-1.15

> <PUBCHEM_SHAPE_SELFOVERLAP>
1539.711

> <PUBCHEM_SHAPE_VOLUME>
365.9

> <PUBCHEM_COORDINATE_TYPE>
2
5
10

$$$$
