14286954
  -OEChem-09302002583D

104109  0     1  0  0  0  0  0999 V2000
   -8.3256    1.3466   -0.5936 O   0  0  0  0  0  0  0  0  0  0  0  0
    0.3496   -4.4744    0.8746 O   0  0  0  0  0  0  0  0  0  0  0  0
   -7.9634    2.2515    1.7878 O   0  0  0  0  0  0  0  0  0  0  0  0
    3.4070    0.1629    0.8283 O   0  0  0  0  0  0  0  0  0  0  0  0
    2.1177   -0.0134   -1.0805 O   0  0  0  0  0  0  0  0  0  0  0  0
    4.5084    1.3542   -0.8486 O   0  0  0  0  0  0  0  0  0  0  0  0
    4.0811    2.1921    2.6821 O   0  0  0  0  0  0  0  0  0  0  0  0
    6.5467    3.6097    1.9128 O   0  0  0  0  0  0  0  0  0  0  0  0
    6.3892    4.4968   -0.8338 O   0  0  0  0  0  0  0  0  0  0  0  0
    4.5021    1.8580   -3.5508 O   0  0  0  0  0  0  0  0  0  0  0  0
   -1.7561    0.1069    0.4057 C   0  0  2  0  0  0  0  0  0  0  0  0
   -2.8135   -0.4041   -0.6420 C   0  0  1  0  0  0  0  0  0  0  0  0
   -4.0698    0.5334   -0.9289 C   0  0  2  0  0  0  0  0  0  0  0  0
   -0.8042   -1.1664    0.8093 C   0  0  1  0  0  0  0  0  0  0  0  0
   -4.6907    0.9118    0.4663 C   0  0  1  0  0  0  0  0  0  0  0  0
   -2.4651    0.7076    1.6543 C   0  0  0  0  0  0  0  0  0  0  0  0
   -0.1855   -1.7797   -0.4693 C   0  0  0  0  0  0  0  0  0  0  0  0
   -3.6484    1.6283    1.3485 C   0  0  0  0  0  0  0  0  0  0  0  0
    1.1682   -2.5172   -0.4260 C   0  0  1  0  0  0  0  0  0  0  0  0
   -6.1103    1.5892    0.4332 C   0  0  1  0  0  0  0  0  0  0  0  0
   -2.1096   -0.9439   -1.9083 C   0  0  0  0  0  0  0  0  0  0  0  0
    0.2641   -0.7176    1.8513 C   0  0  0  0  0  0  0  0  0  0  0  0
    2.1527   -1.8124    0.5478 C   0  0  1  0  0  0  0  0  0  0  0  0
   -5.1254   -0.2943   -1.7232 C   0  0  0  0  0  0  0  0  0  0  0  0
    1.5188   -1.5907    1.9297 C   0  0  0  0  0  0  0  0  0  0  0  0
   -0.8874    1.2549   -0.2038 C   0  0  0  0  0  0  0  0  0  0  0  0
   -0.8039   -1.6395   -1.6606 C   0  0  0  0  0  0  0  0  0  0  0  0
   -7.0609    0.7056   -0.4271 C   0  0  2  0  0  0  0  0  0  0  0  0
    1.0861   -4.0912   -0.2835 C   0  0  1  0  0  0  0  0  0  0  0  0
   -3.7110    1.7728   -1.7880 C   0  0  0  0  0  0  0  0  0  0  0  0
   -6.5037    0.3576   -1.8037 C   0  0  0  0  0  0  0  0  0  0  0  0
   -1.6287   -2.3116    1.4751 C   0  0  0  0  0  0  0  0  0  0  0  0
    3.4963   -2.5578    0.6544 C   0  0  0  0  0  0  0  0  0  0  0  0
    2.5157   -4.7145   -0.2094 C   0  0  1  0  0  0  0  0  0  0  0  0
   -6.7042    1.6295    1.8698 C   0  0  0  0  0  0  0  0  0  0  0  0
   -6.0961    3.0508   -0.0586 C   0  0  0  0  0  0  0  0  0  0  0  0
    3.3657   -4.0525    0.8847 C   0  0  0  0  0  0  0  0  0  0  0  0
    2.5380   -0.4566   -0.0203 C   0  0  0  0  0  0  0  0  0  0  0  0
    0.3090   -4.7050   -1.4645 C   0  0  0  0  0  0  0  0  0  0  0  0
    2.5241   -6.2322    0.0294 C   0  0  0  0  0  0  0  0  0  0  0  0
    3.8536    1.4536    0.4140 C   0  0  2  0  0  0  0  0  0  0  0  0
    4.8167    1.9821    1.4769 C   0  0  1  0  0  0  0  0  0  0  0  0
    5.4601    3.2981    1.0394 C   0  0  2  0  0  0  0  0  0  0  0  0
    4.9592    2.6202   -1.3333 C   0  0  1  0  0  0  0  0  0  0  0  0
    6.0105    3.1987   -0.3833 C   0  0  1  0  0  0  0  0  0  0  0  0
    5.5226    2.4023   -2.7340 C   0  0  0  0  0  0  0  0  0  0  0  0
   -3.2693   -1.2899   -0.1771 H   0  0  0  0  0  0  0  0  0  0  0  0
   -4.8760   -0.0522    0.9702 H   0  0  0  0  0  0  0  0  0  0  0  0
   -1.7432    1.2611    2.2683 H   0  0  0  0  0  0  0  0  0  0  0  0
   -2.8537   -0.0768    2.3063 H   0  0  0  0  0  0  0  0  0  0  0  0
   -3.2996    2.5610    0.8983 H   0  0  0  0  0  0  0  0  0  0  0  0
   -4.0785    1.9113    2.3131 H   0  0  0  0  0  0  0  0  0  0  0  0
    1.6181   -2.3860   -1.4251 H   0  0  0  0  0  0  0  0  0  0  0  0
   -2.7738   -1.6533   -2.4160 H   0  0  0  0  0  0  0  0  0  0  0  0
   -1.9025   -0.1470   -2.6262 H   0  0  0  0  0  0  0  0  0  0  0  0
    0.6099    0.2996    1.6637 H   0  0  0  0  0  0  0  0  0  0  0  0
   -0.1902   -0.6754    2.8504 H   0  0  0  0  0  0  0  0  0  0  0  0
   -5.2485   -1.2797   -1.2543 H   0  0  0  0  0  0  0  0  0  0  0  0
   -4.7710   -0.4820   -2.7442 H   0  0  0  0  0  0  0  0  0  0  0  0
    1.2645   -2.5520    2.3888 H   0  0  0  0  0  0  0  0  0  0  0  0
    2.2261   -1.1172    2.6229 H   0  0  0  0  0  0  0  0  0  0  0  0
   -1.4945    2.1008   -0.5239 H   0  0  0  0  0  0  0  0  0  0  0  0
   -0.3077    0.9425   -1.0740 H   0  0  0  0  0  0  0  0  0  0  0  0
   -0.1875    1.6832    0.5180 H   0  0  0  0  0  0  0  0  0  0  0  0
   -0.3365   -2.0518   -2.5525 H   0  0  0  0  0  0  0  0  0  0  0  0
   -7.2518   -0.2345    0.1079 H   0  0  0  0  0  0  0  0  0  0  0  0
   -4.5393    2.1027   -2.4192 H   0  0  0  0  0  0  0  0  0  0  0  0
   -2.8968    1.5816   -2.4885 H   0  0  0  0  0  0  0  0  0  0  0  0
   -3.4191    2.6392   -1.1929 H   0  0  0  0  0  0  0  0  0  0  0  0
   -6.4912    1.2465   -2.4435 H   0  0  0  0  0  0  0  0  0  0  0  0
   -7.1945   -0.3317   -2.3069 H   0  0  0  0  0  0  0  0  0  0  0  0
   -2.1502   -2.9358    0.7405 H   0  0  0  0  0  0  0  0  0  0  0  0
   -0.9925   -2.9755    2.0657 H   0  0  0  0  0  0  0  0  0  0  0  0
   -2.3792   -1.9548    2.1807 H   0  0  0  0  0  0  0  0  0  0  0  0
    4.0788   -2.4080   -0.2663 H   0  0  0  0  0  0  0  0  0  0  0  0
    4.1113   -2.1427    1.4641 H   0  0  0  0  0  0  0  0  0  0  0  0
    3.0137   -4.5344   -1.1726 H   0  0  0  0  0  0  0  0  0  0  0  0
   -6.8142    0.6308    2.3062 H   0  0  0  0  0  0  0  0  0  0  0  0
   -6.1006    2.2332    2.5509 H   0  0  0  0  0  0  0  0  0  0  0  0
    4.3697   -4.4949    0.8962 H   0  0  0  0  0  0  0  0  0  0  0  0
    2.9299   -4.2427    1.8730 H   0  0  0  0  0  0  0  0  0  0  0  0
   -7.0758    3.5358    0.0115 H   0  0  0  0  0  0  0  0  0  0  0  0
   -5.3995    3.6603    0.5266 H   0  0  0  0  0  0  0  0  0  0  0  0
   -5.8133    3.1376   -1.1071 H   0  0  0  0  0  0  0  0  0  0  0  0
   -0.7306   -4.3618   -1.4807 H   0  0  0  0  0  0  0  0  0  0  0  0
    0.7773   -4.4630   -2.4239 H   0  0  0  0  0  0  0  0  0  0  0  0
    0.2311   -5.7940   -1.3879 H   0  0  0  0  0  0  0  0  0  0  0  0
    2.0514   -6.5010    0.9792 H   0  0  0  0  0  0  0  0  0  0  0  0
    3.5546   -6.6044    0.0633 H   0  0  0  0  0  0  0  0  0  0  0  0
    2.0241   -6.7770   -0.7753 H   0  0  0  0  0  0  0  0  0  0  0  0
   -8.8988    0.7417   -1.0946 H   0  0  0  0  0  0  0  0  0  0  0  0
    0.1632   -5.4270    0.8351 H   0  0  0  0  0  0  0  0  0  0  0  0
   -8.5974    1.6060    1.4329 H   0  0  0  0  0  0  0  0  0  0  0  0
    2.9737    2.1074    0.3358 H   0  0  0  0  0  0  0  0  0  0  0  0
    5.5874    1.2327    1.6963 H   0  0  0  0  0  0  0  0  0  0  0  0
    4.7470    4.1279    1.1208 H   0  0  0  0  0  0  0  0  0  0  0  0
    4.0919    3.2895   -1.4169 H   0  0  0  0  0  0  0  0  0  0  0  0
    6.9135    2.5759   -0.3817 H   0  0  0  0  0  0  0  0  0  0  0  0
    4.7154    2.4386    3.3759 H   0  0  0  0  0  0  0  0  0  0  0  0
    5.8661    3.3407   -3.1795 H   0  0  0  0  0  0  0  0  0  0  0  0
    6.3510    1.6862   -2.7141 H   0  0  0  0  0  0  0  0  0  0  0  0
    6.1790    3.7555    2.8006 H   0  0  0  0  0  0  0  0  0  0  0  0
    5.5922    5.0538   -0.8492 H   0  0  0  0  0  0  0  0  0  0  0  0
    4.8833    1.7234   -4.4352 H   0  0  0  0  0  0  0  0  0  0  0  0
  1 28  1  0  0  0  0
  1 91  1  0  0  0  0
  2 29  1  0  0  0  0
  2 92  1  0  0  0  0
  3 35  1  0  0  0  0
  3 93  1  0  0  0  0
  4 38  1  0  0  0  0
  4 41  1  0  0  0  0
  5 38  2  0  0  0  0
  6 41  1  0  0  0  0
  6 44  1  0  0  0  0
  7 42  1  0  0  0  0
  7 99  1  0  0  0  0
  8 43  1  0  0  0  0
  8102  1  0  0  0  0
  9 45  1  0  0  0  0
  9103  1  0  0  0  0
 10 46  1  0  0  0  0
 10104  1  0  0  0  0
 11 12  1  0  0  0  0
 11 14  1  0  0  0  0
 11 16  1  0  0  0  0
 11 26  1  0  0  0  0
 12 13  1  0  0  0  0
 12 21  1  0  0  0  0
 12 47  1  0  0  0  0
 13 15  1  0  0  0  0
 13 24  1  0  0  0  0
 13 30  1  0  0  0  0
 14 17  1  0  0  0  0
 14 22  1  0  0  0  0
 14 32  1  0  0  0  0
 15 18  1  0  0  0  0
 15 20  1  0  0  0  0
 15 48  1  0  0  0  0
 16 18  1  0  0  0  0
 16 49  1  0  0  0  0
 16 50  1  0  0  0  0
 17 19  1  0  0  0  0
 17 27  2  0  0  0  0
 18 51  1  0  0  0  0
 18 52  1  0  0  0  0
 19 23  1  0  0  0  0
 19 29  1  0  0  0  0
 19 53  1  0  0  0  0
 20 28  1  0  0  0  0
 20 35  1  0  0  0  0
 20 36  1  0  0  0  0
 21 27  1  0  0  0  0
 21 54  1  0  0  0  0
 21 55  1  0  0  0  0
 22 25  1  0  0  0  0
 22 56  1  0  0  0  0
 22 57  1  0  0  0  0
 23 25  1  0  0  0  0
 23 33  1  0  0  0  0
 23 38  1  0  0  0  0
 24 31  1  0  0  0  0
 24 58  1  0  0  0  0
 24 59  1  0  0  0  0
 25 60  1  0  0  0  0
 25 61  1  0  0  0  0
 26 62  1  0  0  0  0
 26 63  1  0  0  0  0
 26 64  1  0  0  0  0
 27 65  1  0  0  0  0
 28 31  1  0  0  0  0
 28 66  1  0  0  0  0
 29 34  1  0  0  0  0
 29 39  1  0  0  0  0
 30 67  1  0  0  0  0
 30 68  1  0  0  0  0
 30 69  1  0  0  0  0
 31 70  1  0  0  0  0
 31 71  1  0  0  0  0
 32 72  1  0  0  0  0
 32 73  1  0  0  0  0
 32 74  1  0  0  0  0
 33 37  1  0  0  0  0
 33 75  1  0  0  0  0
 33 76  1  0  0  0  0
 34 37  1  0  0  0  0
 34 40  1  0  0  0  0
 34 77  1  0  0  0  0
 35 78  1  0  0  0  0
 35 79  1  0  0  0  0
 36 82  1  0  0  0  0
 36 83  1  0  0  0  0
 36 84  1  0  0  0  0
 37 80  1  0  0  0  0
 37 81  1  0  0  0  0
 39 85  1  0  0  0  0
 39 86  1  0  0  0  0
 39 87  1  0  0  0  0
 40 88  1  0  0  0  0
 40 89  1  0  0  0  0
 40 90  1  0  0  0  0
 41 42  1  0  0  0  0
 41 94  1  0  0  0  0
 42 43  1  0  0  0  0
 42 95  1  0  0  0  0
 43 45  1  0  0  0  0
 43 96  1  0  0  0  0
 44 45  1  0  0  0  0
 44 46  1  0  0  0  0
 44 97  1  0  0  0  0
 45 98  1  0  0  0  0
 46100  1  0  0  0  0
 46101  1  0  0  0  0
M  END
> <PUBCHEM_COMPOUND_CID>
14286954

> <PUBCHEM_CONFORMER_RMSD>
1.2

> <PUBCHEM_CONFORMER_DIVERSEORDER>
1
9
4
14
8
10
12
7
3
5
18
2
16
6
11
17
15
13

> <PUBCHEM_MMFF94_PARTIAL_CHARGES>
34
1 -0.68
10 -0.68
102 0.4
103 0.4
104 0.4
14 0.14
17 -0.28
19 0.14
2 -0.68
21 0.14
23 0.06
27 -0.29
28 0.28
29 0.28
3 -0.68
35 0.28
38 0.66
4 -0.43
41 0.56
42 0.28
43 0.28
44 0.28
45 0.28
46 0.28
5 -0.57
6 -0.56
65 0.15
7 -0.68
8 -0.68
9 -0.68
91 0.4
92 0.4
93 0.4
99 0.4

> <PUBCHEM_EFFECTIVE_ROTOR_COUNT>
8.8

> <PUBCHEM_PHARMACOPHORE_FEATURES>
22
1 1 acceptor
1 1 donor
1 10 acceptor
1 10 donor
1 2 acceptor
1 2 donor
1 3 acceptor
1 3 donor
1 5 acceptor
1 6 acceptor
1 7 acceptor
1 7 donor
1 8 acceptor
1 8 donor
1 9 acceptor
1 9 donor
6 11 12 13 15 16 18 rings
6 11 12 14 17 21 27 rings
6 13 15 20 24 28 31 rings
6 14 17 19 22 23 25 rings
6 19 23 29 33 34 37 rings
6 6 41 42 43 44 45 rings

> <PUBCHEM_HEAVY_ATOM_COUNT>
46

> <PUBCHEM_ATOM_DEF_STEREO_COUNT>
16

> <PUBCHEM_ATOM_UDEF_STEREO_COUNT>
0

> <PUBCHEM_BOND_DEF_STEREO_COUNT>
0

> <PUBCHEM_BOND_UDEF_STEREO_COUNT>
0

> <PUBCHEM_ISOTOPIC_ATOM_COUNT>
0

> <PUBCHEM_COMPONENT_COUNT>
1

> <PUBCHEM_CACTVS_TAUTO_COUNT>
1

> <PUBCHEM_CONFORMER_ID>
00DA006A00000001

> <PUBCHEM_MMFF94_ENERGY>
194.6058

> <PUBCHEM_FEATURE_SELFOVERLAP>
111.782

> <PUBCHEM_SHAPE_FINGERPRINT>
10673678 19 18411420600520185331
10721379 63 18200881656433005974
11062273 23 17904477755595878826
11062273 29 18269846324467780958
11135609 187 18339913901122394657
11445158 3 17983282743107876775
11505856 67 17395033375229043694
11578080 2 18262254277876352979
11763715 3 17258517547231038551
1200032 147 18335979844143877320
12166972 35 17984695615338714651
12522641 126 18340485565058064023
12741549 16 17611184854511559806
13726171 33 17489592294535829699
13782708 43 17316768664575678099
14294032 229 18118975933970627690
14395042 70 18191046524368707404
14849402 71 18268426837349398698
15131766 46 18341603820646111469
15198563 99 17476643556359888814
15297060 5 18336273444072142836
15392192 104 18041574611006982201
15439362 3 18412822504681163238
15513586 35 16449259878586392980
15685185 35 18267305528567786873
15840311 113 18190180075964899365
17899979 129 18411142420200154712
18393751 57 17676203589745378665
19304144 158 18114727305604370429
19304671 126 17703800236302214272
19309040 13 18413389851800141199
19319366 153 18272360971393955354
21033648 29 18339365296433594884
21792965 68 18053938739732138384
22311459 1 18266454309447642730
23522609 53 17774172202158609377
23559900 14 17751095617306818507
27425 322 18270964677943108452
397830 11 17894641353175191459
4058900 60 18412825815130465802
4112364 45 18409724050105358514
42767 28 16702033014528462468
44317340 157 18338234835223985329
4516262 110 18339911680529428773
5219985 13 18337110172008741396
5912855 24 18271796948464212023
6058803 2 17987228929374191883
6609424 69 17023449856031320020
6695519 79 18198084631706151043
6697151 62 17613975419011685607
9849439 229 18339357573913390384
9896288 288 18121501516585892514
9962374 69 18266446621435031811

> <PUBCHEM_SHAPE_MULTIPOLES>
887.97
17.94
6.69
2.34
20.84
7.52
-0.65
-25.28
-0.43
-13.81
-0.11
-1.04
-1.41
-1.84

> <PUBCHEM_SHAPE_SELFOVERLAP>
1888.102

> <PUBCHEM_SHAPE_VOLUME>
486.5

> <PUBCHEM_COORDINATE_TYPE>
2
5
10

$$$$
