131752730
  -OEChem-09302003273D

 56 59  0     1  0  0  0  0  0999 V2000
    0.9608   -1.8108   -0.9072 O   0  0  0  0  0  0  0  0  0  0  0  0
    0.2409    0.7232    0.1652 O   0  0  0  0  0  0  0  0  0  0  0  0
    1.8757   -1.6383    2.6501 O   0  0  0  0  0  0  0  0  0  0  0  0
   -0.6773   -3.0625    2.6908 O   0  0  0  0  0  0  0  0  0  0  0  0
   -1.6196   -2.2889    0.2046 O   0  0  0  0  0  0  0  0  0  0  0  0
   -0.3603    2.7784   -1.7610 O   0  0  0  0  0  0  0  0  0  0  0  0
    0.5405   -3.5540   -3.2538 O   0  0  0  0  0  0  0  0  0  0  0  0
    4.5890   -1.1751    0.0206 O   0  0  0  0  0  0  0  0  0  0  0  0
    4.1511    3.5411   -0.3269 O   0  0  0  0  0  0  0  0  0  0  0  0
   -4.2430   -0.5524   -1.5946 O   0  0  0  0  0  0  0  0  0  0  0  0
   -6.0575    0.6540    0.1310 O   0  0  0  0  0  0  0  0  0  0  0  0
    1.7817   -1.5759    0.2427 C   0  0  2  0  0  0  0  0  0  0  0  0
    0.9725   -1.6969    1.5464 C   0  0  1  0  0  0  0  0  0  0  0  0
    0.2218   -3.0316    1.5855 C   0  0  2  0  0  0  0  0  0  0  0  0
   -0.5713   -3.2559    0.2981 C   0  0  2  0  0  0  0  0  0  0  0  0
    0.3525   -3.1076   -0.9142 C   0  0  1  0  0  0  0  0  0  0  0  0
    2.3998   -0.1998    0.0909 C   0  0  0  0  0  0  0  0  0  0  0  0
    1.5909    0.9391    0.0626 C   0  0  0  0  0  0  0  0  0  0  0  0
    2.1610    2.2081   -0.1001 C   0  0  0  0  0  0  0  0  0  0  0  0
   -0.1608    3.0918   -0.3818 C   0  0  1  0  0  0  0  0  0  0  0  0
   -0.5356    1.8871    0.4913 C   0  0  1  0  0  0  0  0  0  0  0  0
    1.3073    3.4462   -0.1550 C   0  0  0  0  0  0  0  0  0  0  0  0
   -0.3953   -3.2508   -2.2346 C   0  0  0  0  0  0  0  0  0  0  0  0
    3.7844   -0.0758   -0.0127 C   0  0  0  0  0  0  0  0  0  0  0  0
    3.5549    2.3216   -0.1927 C   0  0  0  0  0  0  0  0  0  0  0  0
    4.3621    1.1843   -0.1502 C   0  0  0  0  0  0  0  0  0  0  0  0
   -2.0131    1.5557    0.3917 C   0  0  0  0  0  0  0  0  0  0  0  0
   -2.4607    0.6455   -0.5658 C   0  0  0  0  0  0  0  0  0  0  0  0
   -2.9234    2.1604    1.2584 C   0  0  0  0  0  0  0  0  0  0  0  0
   -3.8186    0.3400   -0.6567 C   0  0  0  0  0  0  0  0  0  0  0  0
   -4.2814    1.8551    1.1673 C   0  0  0  0  0  0  0  0  0  0  0  0
   -4.7290    0.9448    0.2099 C   0  0  0  0  0  0  0  0  0  0  0  0
    2.5682   -2.3404    0.2442 H   0  0  0  0  0  0  0  0  0  0  0  0
    0.2443   -0.9015    1.7102 H   0  0  0  0  0  0  0  0  0  0  0  0
    0.9364   -3.8509    1.7336 H   0  0  0  0  0  0  0  0  0  0  0  0
   -1.0436   -4.2448    0.3208 H   0  0  0  0  0  0  0  0  0  0  0  0
    1.1517   -3.8596   -0.8696 H   0  0  0  0  0  0  0  0  0  0  0  0
   -0.7923    3.9578   -0.1513 H   0  0  0  0  0  0  0  0  0  0  0  0
   -0.3241    2.1178    1.5459 H   0  0  0  0  0  0  0  0  0  0  0  0
    1.4125    3.9736    0.8009 H   0  0  0  0  0  0  0  0  0  0  0  0
    1.6567    4.1047   -0.9589 H   0  0  0  0  0  0  0  0  0  0  0  0
   -1.1138   -4.0754   -2.1920 H   0  0  0  0  0  0  0  0  0  0  0  0
   -0.9130   -2.3263   -2.5108 H   0  0  0  0  0  0  0  0  0  0  0  0
    2.5133   -2.3667    2.5579 H   0  0  0  0  0  0  0  0  0  0  0  0
   -1.1238   -3.9263    2.6823 H   0  0  0  0  0  0  0  0  0  0  0  0
    5.4425    1.2811   -0.2264 H   0  0  0  0  0  0  0  0  0  0  0  0
   -2.2111   -2.5605   -0.5174 H   0  0  0  0  0  0  0  0  0  0  0  0
   -0.1333    3.5704   -2.2774 H   0  0  0  0  0  0  0  0  0  0  0  0
    0.0420   -3.6444   -4.0837 H   0  0  0  0  0  0  0  0  0  0  0  0
   -1.7605    0.1794   -1.2547 H   0  0  0  0  0  0  0  0  0  0  0  0
   -2.5872    2.8726    2.0073 H   0  0  0  0  0  0  0  0  0  0  0  0
    5.5162   -0.8940   -0.0642 H   0  0  0  0  0  0  0  0  0  0  0  0
    5.1151    3.4225   -0.3749 H   0  0  0  0  0  0  0  0  0  0  0  0
   -4.9798    2.3338    1.8485 H   0  0  0  0  0  0  0  0  0  0  0  0
   -3.4751   -0.8738   -2.0976 H   0  0  0  0  0  0  0  0  0  0  0  0
   -6.5342    1.1651    0.8074 H   0  0  0  0  0  0  0  0  0  0  0  0
  1 12  1  0  0  0  0
  1 16  1  0  0  0  0
  2 18  1  0  0  0  0
  2 21  1  0  0  0  0
  3 13  1  0  0  0  0
  3 44  1  0  0  0  0
  4 14  1  0  0  0  0
  4 45  1  0  0  0  0
  5 15  1  0  0  0  0
  5 47  1  0  0  0  0
  6 20  1  0  0  0  0
  6 48  1  0  0  0  0
  7 23  1  0  0  0  0
  7 49  1  0  0  0  0
  8 24  1  0  0  0  0
  8 52  1  0  0  0  0
  9 25  1  0  0  0  0
  9 53  1  0  0  0  0
 10 30  1  0  0  0  0
 10 55  1  0  0  0  0
 11 32  1  0  0  0  0
 11 56  1  0  0  0  0
 12 13  1  0  0  0  0
 12 17  1  0  0  0  0
 12 33  1  0  0  0  0
 13 14  1  0  0  0  0
 13 34  1  0  0  0  0
 14 15  1  0  0  0  0
 14 35  1  0  0  0  0
 15 16  1  0  0  0  0
 15 36  1  0  0  0  0
 16 23  1  0  0  0  0
 16 37  1  0  0  0  0
 17 18  1  0  0  0  0
 17 24  2  0  0  0  0
 18 19  2  0  0  0  0
 19 22  1  0  0  0  0
 19 25  1  0  0  0  0
 20 21  1  0  0  0  0
 20 22  1  0  0  0  0
 20 38  1  0  0  0  0
 21 27  1  0  0  0  0
 21 39  1  0  0  0  0
 22 40  1  0  0  0  0
 22 41  1  0  0  0  0
 23 42  1  0  0  0  0
 23 43  1  0  0  0  0
 24 26  1  0  0  0  0
 25 26  2  0  0  0  0
 26 46  1  0  0  0  0
 27 28  2  0  0  0  0
 27 29  1  0  0  0  0
 28 30  1  0  0  0  0
 28 50  1  0  0  0  0
 29 31  2  0  0  0  0
 29 51  1  0  0  0  0
 30 32  2  0  0  0  0
 31 32  1  0  0  0  0
 31 54  1  0  0  0  0
M  END
> <PUBCHEM_COMPOUND_CID>
131752730

> <PUBCHEM_CONFORMER_RMSD>
0.8

> <PUBCHEM_CONFORMER_DIVERSEORDER>
1
21
46
40
71
50
62
61
43
23
45
73
59
47
15
12
75
69
58
55
65
30
67
19
60
64
24
35
18
44
16
78
17
54
14
72
33
52
9
70
20
49
41
3
51
42
63
25
74
77
48
36
53
4
29
2
13
11
68
56
57
38
28
10
31
39
26
66
22
27
34
32
37
76
7
5
8
6

> <PUBCHEM_MMFF94_PARTIAL_CHARGES>
45
1 -0.56
10 -0.53
11 -0.53
12 0.42
13 0.28
14 0.28
15 0.28
16 0.28
17 -0.14
18 0.08
19 -0.14
2 -0.36
20 0.28
21 0.42
22 0.14
23 0.28
24 0.08
25 0.08
26 -0.15
27 -0.14
28 -0.15
29 -0.15
3 -0.68
30 0.08
31 -0.15
32 0.08
4 -0.68
44 0.4
45 0.4
46 0.15
47 0.4
48 0.4
49 0.4
5 -0.68
50 0.15
51 0.15
52 0.45
53 0.45
54 0.15
55 0.45
56 0.45
6 -0.68
7 -0.68
8 -0.53
9 -0.53

> <PUBCHEM_EFFECTIVE_ROTOR_COUNT>
5

> <PUBCHEM_PHARMACOPHORE_FEATURES>
20
1 1 acceptor
1 10 donor
1 11 donor
1 2 acceptor
1 3 acceptor
1 3 donor
1 4 acceptor
1 4 donor
1 5 acceptor
1 5 donor
1 6 acceptor
1 6 donor
1 7 acceptor
1 7 donor
1 8 donor
1 9 donor
6 1 12 13 14 15 16 rings
6 17 18 19 24 25 26 rings
6 2 18 19 20 21 22 rings
6 27 28 29 30 31 32 rings

> <PUBCHEM_HEAVY_ATOM_COUNT>
32

> <PUBCHEM_ATOM_DEF_STEREO_COUNT>
6

> <PUBCHEM_ATOM_UDEF_STEREO_COUNT>
1

> <PUBCHEM_BOND_DEF_STEREO_COUNT>
0

> <PUBCHEM_BOND_UDEF_STEREO_COUNT>
0

> <PUBCHEM_ISOTOPIC_ATOM_COUNT>
0

> <PUBCHEM_COMPONENT_COUNT>
1

> <PUBCHEM_CACTVS_TAUTO_COUNT>
90

> <PUBCHEM_CONFORMER_ID>
07DA631A00000001

> <PUBCHEM_MMFF94_ENERGY>
96.6086

> <PUBCHEM_FEATURE_SELFOVERLAP>
101.567

> <PUBCHEM_SHAPE_FINGERPRINT>
1100329 8 18334572456401490312
11112662 9 18343022181237596782
11135609 187 18265604554568409709
11421498 54 17631462176414408793
11513181 2 17988369268417791694
11578080 2 11892721978625593988
12156800 1 17464861056132223839
12553582 1 18120088373623843145
12788726 201 17614837848154007184
13140716 1 18334296504710777632
14117953 113 17907841930468880255
14178342 30 17909540658728135808
14790565 3 18409738347735982677
15131766 46 15504656133935168844
15297060 5 17703794742832775235
15664445 248 18123757443978381565
17138139 8 17841128255200160517
17492 54 18334021583600913860
18681886 176 18272081678566638448
19319366 153 17895199883634041338
19591789 44 18336265652500093224
20028762 73 18201719509656746622
20511986 3 18129648730623809065
21197605 99 18266191706736202427
21421861 104 17975420109624490801
23558518 356 17539686219980084672
23559900 14 17483958177811890549
238 59 18336274439971149697
25222932 49 18040724675544489971
394071 54 18196105356879712057
5081480 168 17269235737170855991
5171179 24 16907496772473693048
6287921 2 17843962542531240719
6438718 38 18197219359078044450

> <PUBCHEM_SHAPE_MULTIPOLES>
593.98
7.92
5.26
1.89
6.05
1.9
-0.16
-5.39
0.05
-1.99
-1.02
0.26
2.48
-0.9

> <PUBCHEM_SHAPE_SELFOVERLAP>
1300.063

> <PUBCHEM_SHAPE_VOLUME>
318.3

> <PUBCHEM_COORDINATE_TYPE>
2
5
10

$$$$
