3081756
  -OEChem-09292011363D

 80 84  0     1  0  0  0  0  0999 V2000
    6.8592   -1.0508   -0.3438 O   0  0  0  0  0  0  0  0  0  0  0  0
    5.1881   -2.9209    1.0429 O   0  0  0  0  0  0  0  0  0  0  0  0
   -4.6574    2.6490    1.2014 O   0  0  0  0  0  0  0  0  0  0  0  0
   -3.2638    1.2049    2.2822 O   0  0  0  0  0  0  0  0  0  0  0  0
    0.4472    1.1048   -0.1996 C   0  0  2  0  0  0  0  0  0  0  0  0
    2.7631   -0.0120    0.6695 C   0  0  2  0  0  0  0  0  0  0  0  0
    1.1864   -0.1347    0.4413 C   0  0  1  0  0  0  0  0  0  0  0  0
    3.3958    0.4938   -0.6775 C   0  0  2  0  0  0  0  0  0  0  0  0
   -1.0382    0.6254   -0.6948 C   0  0  1  0  0  0  0  0  0  0  0  0
    1.2776    1.6595   -1.3893 C   0  0  0  0  0  0  0  0  0  0  0  0
    4.9636    0.4311   -0.7768 C   0  0  0  0  0  0  0  0  0  0  0  0
    2.7690    1.8377   -1.1014 C   0  0  0  0  0  0  0  0  0  0  0  0
    3.3317   -1.4341    0.9525 C   0  0  0  0  0  0  0  0  0  0  0  0
    0.4006   -0.6455    1.6710 C   0  0  0  0  0  0  0  0  0  0  0  0
   -1.7195   -0.2746    0.3575 C   0  0  0  0  0  0  0  0  0  0  0  0
   -1.9473    1.8666   -0.9919 C   0  0  0  0  0  0  0  0  0  0  0  0
    5.4311   -1.0104   -0.4126 C   0  0  2  0  0  0  0  0  0  0  0  0
    4.8582   -1.5348    0.9046 C   0  0  2  0  0  0  0  0  0  0  0  0
    0.3145    2.2542    0.8435 C   0  0  0  0  0  0  0  0  0  0  0  0
    3.1229    0.8769    1.8856 C   0  0  0  0  0  0  0  0  0  0  0  0
   -1.0706   -0.7753    1.4240 C   0  0  0  0  0  0  0  0  0  0  0  0
   -3.9964    0.7132    0.0117 C   0  0  1  0  0  0  0  0  0  0  0  0
   -0.9645   -0.2146   -2.0073 C   0  0  0  0  0  0  0  0  0  0  0  0
   -3.1532   -0.5529    0.1369 C   0  0  0  0  0  0  0  0  0  0  0  0
   -3.4413    1.5502   -1.1597 C   0  0  0  0  0  0  0  0  0  0  0  0
    5.4043    0.6906   -2.2460 C   0  0  0  0  0  0  0  0  0  0  0  0
    5.6877    1.4949    0.0739 C   0  0  0  0  0  0  0  0  0  0  0  0
   -5.5023    0.4396   -0.1876 C   0  0  0  0  0  0  0  0  0  0  0  0
   -3.6527   -1.8017   -0.0741 C   0  0  0  0  0  0  0  0  0  0  0  0
   -5.1234   -2.0227   -0.4498 C   0  0  1  0  0  0  0  0  0  0  0  0
   -5.7568   -0.7683   -1.0659 C   0  0  0  0  0  0  0  0  0  0  0  0
   -3.9113    1.5213    1.2952 C   0  0  0  0  0  0  0  0  0  0  0  0
   -2.8312   -3.0720    0.0048 C   0  0  0  0  0  0  0  0  0  0  0  0
   -5.3712   -3.1884   -1.4204 C   0  0  0  0  0  0  0  0  0  0  0  0
    1.0996   -0.9373   -0.3053 H   0  0  0  0  0  0  0  0  0  0  0  0
    3.0598   -0.2311   -1.4386 H   0  0  0  0  0  0  0  0  0  0  0  0
    0.8619    2.6149   -1.7321 H   0  0  0  0  0  0  0  0  0  0  0  0
    1.2217    0.9828   -2.2470 H   0  0  0  0  0  0  0  0  0  0  0  0
    3.2274    2.2058   -2.0242 H   0  0  0  0  0  0  0  0  0  0  0  0
    2.9256    2.6215   -0.3561 H   0  0  0  0  0  0  0  0  0  0  0  0
    2.9177   -2.1512    0.2295 H   0  0  0  0  0  0  0  0  0  0  0  0
    2.9938   -1.7929    1.9333 H   0  0  0  0  0  0  0  0  0  0  0  0
    0.5265    0.0032    2.5415 H   0  0  0  0  0  0  0  0  0  0  0  0
    0.7719   -1.6359    1.9557 H   0  0  0  0  0  0  0  0  0  0  0  0
   -1.5911    2.3888   -1.8884 H   0  0  0  0  0  0  0  0  0  0  0  0
   -1.8944    2.5956   -0.1791 H   0  0  0  0  0  0  0  0  0  0  0  0
    5.1457   -1.7007   -1.2179 H   0  0  0  0  0  0  0  0  0  0  0  0
    5.3296   -1.0276    1.7517 H   0  0  0  0  0  0  0  0  0  0  0  0
    1.2498    2.4873    1.3453 H   0  0  0  0  0  0  0  0  0  0  0  0
    0.0123    3.1942    0.3683 H   0  0  0  0  0  0  0  0  0  0  0  0
   -0.4186    2.0278    1.6234 H   0  0  0  0  0  0  0  0  0  0  0  0
    4.0770    0.6012    2.3395 H   0  0  0  0  0  0  0  0  0  0  0  0
    3.2074    1.9351    1.6348 H   0  0  0  0  0  0  0  0  0  0  0  0
    2.4021    0.7875    2.7002 H   0  0  0  0  0  0  0  0  0  0  0  0
   -1.6160   -1.3587    2.1634 H   0  0  0  0  0  0  0  0  0  0  0  0
   -0.6809    0.4019   -2.8666 H   0  0  0  0  0  0  0  0  0  0  0  0
   -0.2536   -1.0425   -1.9321 H   0  0  0  0  0  0  0  0  0  0  0  0
   -1.9292   -0.6592   -2.2763 H   0  0  0  0  0  0  0  0  0  0  0  0
   -3.9848    2.4983   -1.2610 H   0  0  0  0  0  0  0  0  0  0  0  0
   -3.5886    1.0196   -2.1088 H   0  0  0  0  0  0  0  0  0  0  0  0
    6.4735    0.4926   -2.3849 H   0  0  0  0  0  0  0  0  0  0  0  0
    4.8591    0.0454   -2.9439 H   0  0  0  0  0  0  0  0  0  0  0  0
    5.2393    1.7301   -2.5466 H   0  0  0  0  0  0  0  0  0  0  0  0
    6.7491    1.5599   -0.1949 H   0  0  0  0  0  0  0  0  0  0  0  0
    5.2642    2.4923   -0.0808 H   0  0  0  0  0  0  0  0  0  0  0  0
    5.6610    1.2759    1.1413 H   0  0  0  0  0  0  0  0  0  0  0  0
   -6.0024    1.3124   -0.6274 H   0  0  0  0  0  0  0  0  0  0  0  0
   -5.9950    0.2686    0.7805 H   0  0  0  0  0  0  0  0  0  0  0  0
   -5.6551   -2.2602    0.4822 H   0  0  0  0  0  0  0  0  0  0  0  0
   -6.8390   -0.9121   -1.1742 H   0  0  0  0  0  0  0  0  0  0  0  0
   -5.3611   -0.5909   -2.0740 H   0  0  0  0  0  0  0  0  0  0  0  0
    7.1142   -1.9624   -0.1205 H   0  0  0  0  0  0  0  0  0  0  0  0
    4.8482   -3.2190    1.9040 H   0  0  0  0  0  0  0  0  0  0  0  0
   -1.7923   -2.9278    0.3012 H   0  0  0  0  0  0  0  0  0  0  0  0
   -2.7914   -3.5646   -0.9720 H   0  0  0  0  0  0  0  0  0  0  0  0
   -3.2788   -3.7602    0.7296 H   0  0  0  0  0  0  0  0  0  0  0  0
   -6.4324   -3.2539   -1.6862 H   0  0  0  0  0  0  0  0  0  0  0  0
   -4.7998   -3.0658   -2.3472 H   0  0  0  0  0  0  0  0  0  0  0  0
   -5.0988   -4.1493   -0.9717 H   0  0  0  0  0  0  0  0  0  0  0  0
   -4.6154    3.1850    2.0218 H   0  0  0  0  0  0  0  0  0  0  0  0
  1 17  1  0  0  0  0
  1 72  1  0  0  0  0
  2 18  1  0  0  0  0
  2 73  1  0  0  0  0
  3 32  1  0  0  0  0
  3 80  1  0  0  0  0
  4 32  2  0  0  0  0
  5  7  1  0  0  0  0
  5  9  1  0  0  0  0
  5 10  1  0  0  0  0
  5 19  1  0  0  0  0
  6  7  1  0  0  0  0
  6  8  1  0  0  0  0
  6 13  1  0  0  0  0
  6 20  1  0  0  0  0
  7 14  1  0  0  0  0
  7 35  1  0  0  0  0
  8 11  1  0  0  0  0
  8 12  1  0  0  0  0
  8 36  1  0  0  0  0
  9 15  1  0  0  0  0
  9 16  1  0  0  0  0
  9 23  1  0  0  0  0
 10 12  1  0  0  0  0
 10 37  1  0  0  0  0
 10 38  1  0  0  0  0
 11 17  1  0  0  0  0
 11 26  1  0  0  0  0
 11 27  1  0  0  0  0
 12 39  1  0  0  0  0
 12 40  1  0  0  0  0
 13 18  1  0  0  0  0
 13 41  1  0  0  0  0
 13 42  1  0  0  0  0
 14 21  1  0  0  0  0
 14 43  1  0  0  0  0
 14 44  1  0  0  0  0
 15 21  2  0  0  0  0
 15 24  1  0  0  0  0
 16 25  1  0  0  0  0
 16 45  1  0  0  0  0
 16 46  1  0  0  0  0
 17 18  1  0  0  0  0
 17 47  1  0  0  0  0
 18 48  1  0  0  0  0
 19 49  1  0  0  0  0
 19 50  1  0  0  0  0
 19 51  1  0  0  0  0
 20 52  1  0  0  0  0
 20 53  1  0  0  0  0
 20 54  1  0  0  0  0
 21 55  1  0  0  0  0
 22 24  1  0  0  0  0
 22 25  1  0  0  0  0
 22 28  1  0  0  0  0
 22 32  1  0  0  0  0
 23 56  1  0  0  0  0
 23 57  1  0  0  0  0
 23 58  1  0  0  0  0
 24 29  2  0  0  0  0
 25 59  1  0  0  0  0
 25 60  1  0  0  0  0
 26 61  1  0  0  0  0
 26 62  1  0  0  0  0
 26 63  1  0  0  0  0
 27 64  1  0  0  0  0
 27 65  1  0  0  0  0
 27 66  1  0  0  0  0
 28 31  1  0  0  0  0
 28 67  1  0  0  0  0
 28 68  1  0  0  0  0
 29 30  1  0  0  0  0
 29 33  1  0  0  0  0
 30 31  1  0  0  0  0
 30 34  1  0  0  0  0
 30 69  1  0  0  0  0
 31 70  1  0  0  0  0
 31 71  1  0  0  0  0
 33 74  1  0  0  0  0
 33 75  1  0  0  0  0
 33 76  1  0  0  0  0
 34 77  1  0  0  0  0
 34 78  1  0  0  0  0
 34 79  1  0  0  0  0
M  END
> <PUBCHEM_COMPOUND_CID>
3081756

> <PUBCHEM_CONFORMER_RMSD>
0.8

> <PUBCHEM_CONFORMER_DIVERSEORDER>
1

> <PUBCHEM_MMFF94_PARTIAL_CHARGES>
20
1 -0.68
14 0.14
15 -0.14
17 0.28
18 0.28
2 -0.68
21 -0.29
22 0.2
24 -0.14
29 -0.28
3 -0.65
30 0.14
32 0.66
33 0.14
4 -0.57
55 0.15
72 0.4
73 0.4
80 0.5
9 0.14

> <PUBCHEM_EFFECTIVE_ROTOR_COUNT>
3.4

> <PUBCHEM_PHARMACOPHORE_FEATURES>
13
1 1 acceptor
1 1 donor
1 2 acceptor
1 2 donor
1 3 acceptor
1 4 acceptor
3 11 26 27 hydrophobe
3 3 4 32 anion
6 22 24 28 29 30 31 rings
6 5 6 7 8 10 12 rings
6 5 7 9 14 15 21 rings
6 6 8 11 13 17 18 rings
6 9 15 16 22 24 25 rings

> <PUBCHEM_HEAVY_ATOM_COUNT>
34

> <PUBCHEM_ATOM_DEF_STEREO_COUNT>
9

> <PUBCHEM_ATOM_UDEF_STEREO_COUNT>
0

> <PUBCHEM_BOND_DEF_STEREO_COUNT>
0

> <PUBCHEM_BOND_UDEF_STEREO_COUNT>
0

> <PUBCHEM_ISOTOPIC_ATOM_COUNT>
0

> <PUBCHEM_COMPONENT_COUNT>
1

> <PUBCHEM_CACTVS_TAUTO_COUNT>
1

> <PUBCHEM_CONFORMER_ID>
002F061C00000001

> <PUBCHEM_MMFF94_ENERGY>
142.1936

> <PUBCHEM_FEATURE_SELFOVERLAP>
66.111

> <PUBCHEM_SHAPE_FINGERPRINT>
10595046 47 18410292553340710796
10622 236 18265312028155932799
10675989 125 13534645425407970979
11545043 162 17632300081214698561
11796584 16 18130512950899290270
12107183 9 18121782720741617881
12166972 35 18412263960504793137
12236239 1 18412265034056427020
12403259 415 14045742603784197840
12596602 18 18202283623820670040
12788726 201 18266754484648507464
13224815 77 18260258672629349352
13583140 156 16988844960450067157
1361 2 18259701212077162378
13782708 43 17417811776821920767
14068700 675 18201432645192378919
14347332 77 18342172306595638231
14840074 17 17458067062331219951
14856354 85 18202007620669061973
15082195 135 17969509397554900204
15183329 4 18186801374830792566
15250474 111 18335415764334936378
15361156 5 17967545549153645516
15799311 1 18337964406465251606
16990350 14 16618448922158807537
17349148 13 18202285809874562461
17844677 252 18059858397785382048
17857418 61 18335417988884753158
19489759 90 17847063264116041433
19958102 18 18261100898584108167
20511986 3 18335690668032042470
20775438 99 17472678695802382319
21033648 29 15841552942365950777
21267235 1 18260268594879600315
21424621 283 13191155953662445239
21703447 108 17912637201135697249
21859007 373 13972592074230675123
22950370 63 18408885122691264908
23522609 53 18191334643902989820
23559900 14 18198333143182910033
23569914 152 16595575889150739319
23569943 247 17823972325769087530
24771293 8 18261113032716344292
3004659 81 18186517688330974970
34797466 226 17703514388900492528
3633792 109 18114451323974765989
4015057 19 17749114425780429392
463206 1 18260269693895550962
497634 4 18410853270212007205
508706 21 15864065434228058086
5104073 3 18060698394546151416
5326457 24 18411135822724758206
6086070 43 18202275888147168360

> <PUBCHEM_SHAPE_MULTIPOLES>
676.23
14.9
2.82
1.78
6.97
1.23
-0.06
5.29
2.95
-1.92
-0.03
0.21
-0.36
-2.36

> <PUBCHEM_SHAPE_SELFOVERLAP>
1448.274

> <PUBCHEM_SHAPE_VOLUME>
369.2

> <PUBCHEM_COORDINATE_TYPE>
2
5
10

$$$$
