183863
  -OEChem-09292014303D

 82 86  0     1  0  0  0  0  0999 V2000
    2.8658   -2.9583    0.7697 O   0  0  0  0  0  0  0  0  0  0  0  0
    7.0121   -1.0254   -0.5016 O   0  0  0  0  0  0  0  0  0  0  0  0
   -4.2256    2.1889    1.7715 O   0  0  0  0  0  0  0  0  0  0  0  0
   -3.0555    0.2295    1.9045 O   0  0  0  0  0  0  0  0  0  0  0  0
    0.5774    1.0298    0.0710 C   0  0  2  0  0  0  0  0  0  0  0  0
    1.2522   -0.3991    0.0237 C   0  0  1  0  0  0  0  0  0  0  0  0
    2.7974   -0.5060    0.4688 C   0  0  2  0  0  0  0  0  0  0  0  0
   -0.8210    0.9818   -0.7897 C   0  0  1  0  0  0  0  0  0  0  0  0
    3.5769    0.6347   -0.2955 C   0  0  1  0  0  0  0  0  0  0  0  0
    1.5422    2.0986   -0.5052 C   0  0  0  0  0  0  0  0  0  0  0  0
   -1.6638   -0.2733   -0.4198 C   0  0  0  0  0  0  0  0  0  0  0  0
    2.9719    2.0171    0.0234 C   0  0  0  0  0  0  0  0  0  0  0  0
    5.1504    0.5801   -0.2412 C   0  0  0  0  0  0  0  0  0  0  0  0
   -3.1238   -0.2468   -0.8929 C   0  0  2  0  0  0  0  0  0  0  0  0
    3.3833   -1.8817   -0.0121 C   0  0  1  0  0  0  0  0  0  0  0  0
    0.3052   -1.4328    0.6726 C   0  0  0  0  0  0  0  0  0  0  0  0
   -1.6483    2.3004   -0.5480 C   0  0  0  0  0  0  0  0  0  0  0  0
   -3.8144    0.9867   -0.2517 C   0  0  1  0  0  0  0  0  0  0  0  0
    0.2758    1.4318    1.5489 C   0  0  0  0  0  0  0  0  0  0  0  0
   -3.1535    2.2389   -0.8657 C   0  0  0  0  0  0  0  0  0  0  0  0
    5.6085   -0.8400   -0.6837 C   0  0  2  0  0  0  0  0  0  0  0  0
   -1.1346   -1.2867    0.2845 C   0  0  0  0  0  0  0  0  0  0  0  0
    2.9741   -0.4271    2.0078 C   0  0  0  0  0  0  0  0  0  0  0  0
    4.9090   -1.9660    0.0625 C   0  0  0  0  0  0  0  0  0  0  0  0
   -0.5469    0.9001   -2.3232 C   0  0  0  0  0  0  0  0  0  0  0  0
   -4.0677   -1.5031   -0.9900 C   0  0  2  0  0  0  0  0  0  0  0  0
   -5.3257    0.9544   -0.5105 C   0  0  0  0  0  0  0  0  0  0  0  0
   -5.0991   -1.5466    0.1535 C   0  0  1  0  0  0  0  0  0  0  0  0
    5.7432    0.9656    1.1285 C   0  0  0  0  0  0  0  0  0  0  0  0
    5.7407    1.5955   -1.2620 C   0  0  0  0  0  0  0  0  0  0  0  0
   -5.9981   -0.2875    0.1003 C   0  0  0  0  0  0  0  0  0  0  0  0
   -3.6488    1.0773    1.2551 C   0  0  0  0  0  0  0  0  0  0  0  0
   -3.3768   -2.8332   -1.2998 C   0  0  0  0  0  0  0  0  0  0  0  0
   -5.9825   -2.7976    0.1465 C   0  0  0  0  0  0  0  0  0  0  0  0
    1.2835   -0.6688   -1.0411 H   0  0  0  0  0  0  0  0  0  0  0  0
    3.3515    0.4604   -1.3615 H   0  0  0  0  0  0  0  0  0  0  0  0
    1.1502    3.1063   -0.3214 H   0  0  0  0  0  0  0  0  0  0  0  0
    1.6241    2.0025   -1.5910 H   0  0  0  0  0  0  0  0  0  0  0  0
    3.5354    2.8125   -0.4729 H   0  0  0  0  0  0  0  0  0  0  0  0
    3.0048    2.2513    1.0901 H   0  0  0  0  0  0  0  0  0  0  0  0
   -3.0352   -0.0221   -1.9654 H   0  0  0  0  0  0  0  0  0  0  0  0
    3.0775   -2.0592   -1.0510 H   0  0  0  0  0  0  0  0  0  0  0  0
    0.3491   -1.4001    1.7641 H   0  0  0  0  0  0  0  0  0  0  0  0
    0.6009   -2.4409    0.3681 H   0  0  0  0  0  0  0  0  0  0  0  0
   -1.2048    3.1274   -1.1171 H   0  0  0  0  0  0  0  0  0  0  0  0
   -1.5916    2.6127    0.4960 H   0  0  0  0  0  0  0  0  0  0  0  0
    1.1199    1.2668    2.2129 H   0  0  0  0  0  0  0  0  0  0  0  0
    0.0581    2.5008    1.6444 H   0  0  0  0  0  0  0  0  0  0  0  0
   -0.5662    0.8826    1.9741 H   0  0  0  0  0  0  0  0  0  0  0  0
   -3.6284    3.1594   -0.5029 H   0  0  0  0  0  0  0  0  0  0  0  0
   -3.2934    2.2432   -1.9545 H   0  0  0  0  0  0  0  0  0  0  0  0
    5.4079   -0.9592   -1.7567 H   0  0  0  0  0  0  0  0  0  0  0  0
   -1.7642   -2.0990    0.6242 H   0  0  0  0  0  0  0  0  0  0  0  0
    3.8791   -0.9336    2.3503 H   0  0  0  0  0  0  0  0  0  0  0  0
    3.0502    0.5946    2.3816 H   0  0  0  0  0  0  0  0  0  0  0  0
    2.1645   -0.9173    2.5515 H   0  0  0  0  0  0  0  0  0  0  0  0
    5.2568   -2.0196    1.1012 H   0  0  0  0  0  0  0  0  0  0  0  0
    5.2319   -2.9301   -0.3557 H   0  0  0  0  0  0  0  0  0  0  0  0
   -1.4657    0.8358   -2.9137 H   0  0  0  0  0  0  0  0  0  0  0  0
   -0.0446    1.7958   -2.6999 H   0  0  0  0  0  0  0  0  0  0  0  0
    0.0578    0.0302   -2.5938 H   0  0  0  0  0  0  0  0  0  0  0  0
   -4.6684   -1.3251   -1.8986 H   0  0  0  0  0  0  0  0  0  0  0  0
   -5.5020    0.9497   -1.5949 H   0  0  0  0  0  0  0  0  0  0  0  0
   -5.8311    1.8542   -0.1382 H   0  0  0  0  0  0  0  0  0  0  0  0
   -4.5601   -1.5606    1.1071 H   0  0  0  0  0  0  0  0  0  0  0  0
    5.5849    0.2027    1.8906 H   0  0  0  0  0  0  0  0  0  0  0  0
    5.3252    1.9073    1.4982 H   0  0  0  0  0  0  0  0  0  0  0  0
    6.8289    1.1070    1.0614 H   0  0  0  0  0  0  0  0  0  0  0  0
    5.2852    1.4748   -2.2512 H   0  0  0  0  0  0  0  0  0  0  0  0
    6.8215    1.4548   -1.3808 H   0  0  0  0  0  0  0  0  0  0  0  0
    5.5951    2.6326   -0.9444 H   0  0  0  0  0  0  0  0  0  0  0  0
   -6.3320   -0.0579    1.1204 H   0  0  0  0  0  0  0  0  0  0  0  0
   -6.9118   -0.4894   -0.4736 H   0  0  0  0  0  0  0  0  0  0  0  0
    3.2010   -3.7878    0.3889 H   0  0  0  0  0  0  0  0  0  0  0  0
   -4.0740   -3.5127   -1.8041 H   0  0  0  0  0  0  0  0  0  0  0  0
   -2.5287   -2.6943   -1.9779 H   0  0  0  0  0  0  0  0  0  0  0  0
   -3.0385   -3.3508   -0.3992 H   0  0  0  0  0  0  0  0  0  0  0  0
    7.2449   -1.8982   -0.8617 H   0  0  0  0  0  0  0  0  0  0  0  0
   -5.3936   -3.7018    0.3298 H   0  0  0  0  0  0  0  0  0  0  0  0
   -6.7409   -2.7392    0.9350 H   0  0  0  0  0  0  0  0  0  0  0  0
   -6.4991   -2.9139   -0.8122 H   0  0  0  0  0  0  0  0  0  0  0  0
   -4.1130    2.2414    2.7445 H   0  0  0  0  0  0  0  0  0  0  0  0
  1 15  1  0  0  0  0
  1 74  1  0  0  0  0
  2 21  1  0  0  0  0
  2 78  1  0  0  0  0
  3 32  1  0  0  0  0
  3 82  1  0  0  0  0
  4 32  2  0  0  0  0
  5  6  1  0  0  0  0
  5  8  1  0  0  0  0
  5 10  1  0  0  0  0
  5 19  1  0  0  0  0
  6  7  1  0  0  0  0
  6 16  1  0  0  0  0
  6 35  1  0  0  0  0
  7  9  1  0  0  0  0
  7 15  1  0  0  0  0
  7 23  1  0  0  0  0
  8 11  1  0  0  0  0
  8 17  1  0  0  0  0
  8 25  1  0  0  0  0
  9 12  1  0  0  0  0
  9 13  1  0  0  0  0
  9 36  1  0  0  0  0
 10 12  1  0  0  0  0
 10 37  1  0  0  0  0
 10 38  1  0  0  0  0
 11 14  1  0  0  0  0
 11 22  2  0  0  0  0
 12 39  1  0  0  0  0
 12 40  1  0  0  0  0
 13 21  1  0  0  0  0
 13 29  1  0  0  0  0
 13 30  1  0  0  0  0
 14 18  1  0  0  0  0
 14 26  1  0  0  0  0
 14 41  1  0  0  0  0
 15 24  1  0  0  0  0
 15 42  1  0  0  0  0
 16 22  1  0  0  0  0
 16 43  1  0  0  0  0
 16 44  1  0  0  0  0
 17 20  1  0  0  0  0
 17 45  1  0  0  0  0
 17 46  1  0  0  0  0
 18 20  1  0  0  0  0
 18 27  1  0  0  0  0
 18 32  1  0  0  0  0
 19 47  1  0  0  0  0
 19 48  1  0  0  0  0
 19 49  1  0  0  0  0
 20 50  1  0  0  0  0
 20 51  1  0  0  0  0
 21 24  1  0  0  0  0
 21 52  1  0  0  0  0
 22 53  1  0  0  0  0
 23 54  1  0  0  0  0
 23 55  1  0  0  0  0
 23 56  1  0  0  0  0
 24 57  1  0  0  0  0
 24 58  1  0  0  0  0
 25 59  1  0  0  0  0
 25 60  1  0  0  0  0
 25 61  1  0  0  0  0
 26 28  1  0  0  0  0
 26 33  1  0  0  0  0
 26 62  1  0  0  0  0
 27 31  1  0  0  0  0
 27 63  1  0  0  0  0
 27 64  1  0  0  0  0
 28 31  1  0  0  0  0
 28 34  1  0  0  0  0
 28 65  1  0  0  0  0
 29 66  1  0  0  0  0
 29 67  1  0  0  0  0
 29 68  1  0  0  0  0
 30 69  1  0  0  0  0
 30 70  1  0  0  0  0
 30 71  1  0  0  0  0
 31 72  1  0  0  0  0
 31 73  1  0  0  0  0
 33 75  1  0  0  0  0
 33 76  1  0  0  0  0
 33 77  1  0  0  0  0
 34 79  1  0  0  0  0
 34 80  1  0  0  0  0
 34 81  1  0  0  0  0
M  END
> <PUBCHEM_COMPOUND_CID>
183863

> <PUBCHEM_CONFORMER_RMSD>
0.8

> <PUBCHEM_CONFORMER_DIVERSEORDER>
2
1
3

> <PUBCHEM_MMFF94_PARTIAL_CHARGES>
17
1 -0.68
11 -0.28
14 0.14
15 0.28
16 0.14
18 0.06
2 -0.68
21 0.28
22 -0.29
3 -0.65
32 0.66
4 -0.57
53 0.15
74 0.4
78 0.4
8 0.14
82 0.5

> <PUBCHEM_EFFECTIVE_ROTOR_COUNT>
3.6

> <PUBCHEM_PHARMACOPHORE_FEATURES>
13
1 1 acceptor
1 1 donor
1 2 acceptor
1 2 donor
1 3 acceptor
1 4 acceptor
3 13 29 30 hydrophobe
3 3 4 32 anion
6 14 18 26 27 28 31 rings
6 5 6 7 9 10 12 rings
6 5 6 8 11 16 22 rings
6 7 9 13 15 21 24 rings
6 8 11 14 17 18 20 rings

> <PUBCHEM_HEAVY_ATOM_COUNT>
34

> <PUBCHEM_ATOM_DEF_STEREO_COUNT>
10

> <PUBCHEM_ATOM_UDEF_STEREO_COUNT>
1

> <PUBCHEM_BOND_DEF_STEREO_COUNT>
0

> <PUBCHEM_BOND_UDEF_STEREO_COUNT>
0

> <PUBCHEM_ISOTOPIC_ATOM_COUNT>
0

> <PUBCHEM_COMPONENT_COUNT>
1

> <PUBCHEM_CACTVS_TAUTO_COUNT>
1

> <PUBCHEM_CONFORMER_ID>
0002CE3700000002

> <PUBCHEM_MMFF94_ENERGY>
165.2905

> <PUBCHEM_FEATURE_SELFOVERLAP>
66.083

> <PUBCHEM_SHAPE_FINGERPRINT>
10366900 7 17240480316563867896
11135609 12 17605009164101716163
11135609 187 18190182476366327532
11552529 35 18130498730167621255
11578080 2 16807556280856342599
117089 54 17830179361609775851
11963148 33 18260539052664629042
12107183 9 17909553848324171435
12166972 35 18272373108876894024
12236239 1 18273498965833822881
12516196 113 18411417319307901336
12596602 18 17989489627906395192
12788726 201 18263356993386370400
13224815 77 17821441339989744797
1361 2 18041284387087243268
13782708 43 17458623351233626210
13811026 1 18334849537368674567
13911987 19 14923951145471281030
14341114 176 18272369793351570887
14347332 77 18341609365020927711
14790565 3 18408045091544448764
14840074 17 18113343006946712351
14856354 85 17704075109712899813
14955137 171 17846779619970259048
15082195 135 17897455110726309684
15183329 4 18409168797076268654
15361156 5 17968388878587970948
15788980 27 18114181912843939940
15799311 1 18339655464007212590
17349148 13 17676764361786240973
17844677 252 18059858389232279592
1813 80 17603301553175339981
18608769 82 18336263534964989850
19377110 9 18187917383411790938
20511986 3 18341600508355089032
21236236 1 18411982464174194751
21267235 1 18335704983638360903
22149856 69 18411711988429258305
22393880 68 18260538992391797756
22950370 63 18411136926583574748
23522609 53 18192744230863563964
23559900 14 18341602776261923337
23569943 247 18119811297148156314
3004659 81 18260829285616524276
335352 9 18409725137491870213
34797466 226 16630530674099665152
350125 39 18412826906510724395
3633792 109 18337943503603097405
4073 2 18113904891669428179
4325135 7 18334013887267231542
497634 4 18413672405145991149
5104073 3 18271518724281144954
6086070 43 17560504150424679321
9849439 229 16410443407253265985
9896288 288 18129956607096109379

> <PUBCHEM_SHAPE_MULTIPOLES>
676.23
14.98
2.87
1.49
5.8
0.87
-0.22
4.12
0.66
-1.26
0.19
-0.23
-0.37
-0.87

> <PUBCHEM_SHAPE_SELFOVERLAP>
1437.656

> <PUBCHEM_SHAPE_VOLUME>
370.4

> <PUBCHEM_COORDINATE_TYPE>
2
5
10

$$$$
