190934
  -OEChem-09302002573D

103108  0     1  0  0  0  0  0999 V2000
   -0.5786   -4.3802   -1.0563 O   0  0  0  0  0  0  0  0  0  0  0  0
    8.1371    1.5474    0.4579 O   0  0  0  0  0  0  0  0  0  0  0  0
    7.2932   -0.5039    2.2266 O   0  0  0  0  0  0  0  0  0  0  0  0
   -3.5743    0.1414   -0.7989 O   0  0  0  0  0  0  0  0  0  0  0  0
   -2.2480   -0.0287    1.0849 O   0  0  0  0  0  0  0  0  0  0  0  0
    7.5266    2.0863   -2.3387 O   0  0  0  0  0  0  0  0  0  0  0  0
   -4.6581    1.3119    0.9038 O   0  0  0  0  0  0  0  0  0  0  0  0
   -4.3058    2.1711   -2.6301 O   0  0  0  0  0  0  0  0  0  0  0  0
   -6.7731    3.5562   -1.8086 O   0  0  0  0  0  0  0  0  0  0  0  0
   -6.5752    4.4324    0.9389 O   0  0  0  0  0  0  0  0  0  0  0  0
   -4.6078    1.8032    3.6079 O   0  0  0  0  0  0  0  0  0  0  0  0
    1.5918    0.1480   -0.4737 C   0  0  2  0  0  0  0  0  0  0  0  0
    2.6707   -0.3530    0.5593 C   0  0  1  0  0  0  0  0  0  0  0  0
    3.9298    0.5873    0.8188 C   0  0  2  0  0  0  0  0  0  0  0  0
    0.6526   -1.1379   -0.8636 C   0  0  1  0  0  0  0  0  0  0  0  0
    4.5110    0.9723   -0.5855 C   0  0  1  0  0  0  0  0  0  0  0  0
    2.2697    0.7635   -1.7339 C   0  0  0  0  0  0  0  0  0  0  0  0
    0.0614   -1.7586    0.4242 C   0  0  0  0  0  0  0  0  0  0  0  0
   -1.2793   -2.5184    0.3987 C   0  0  1  0  0  0  0  0  0  0  0  0
    3.4493    1.6922   -1.4412 C   0  0  0  0  0  0  0  0  0  0  0  0
   -2.2924   -1.8195   -0.5508 C   0  0  1  0  0  0  0  0  0  0  0  0
   -0.4385   -0.7040   -1.8884 C   0  0  0  0  0  0  0  0  0  0  0  0
    1.9876   -0.8870    1.8388 C   0  0  0  0  0  0  0  0  0  0  0  0
    5.9124    1.6684   -0.5824 C   0  0  2  0  0  0  0  0  0  0  0  0
    5.0155   -0.2372    1.5697 C   0  0  0  0  0  0  0  0  0  0  0  0
   -1.6852   -1.5913   -1.9444 C   0  0  0  0  0  0  0  0  0  0  0  0
    0.7148    1.2814    0.1522 C   0  0  0  0  0  0  0  0  0  0  0  0
    0.6924   -1.6091    1.6080 C   0  0  0  0  0  0  0  0  0  0  0  0
   -1.1706   -4.0843    0.2061 C   0  0  1  0  0  0  0  0  0  0  0  0
    3.5951    1.8199    1.6948 C   0  0  0  0  0  0  0  0  0  0  0  0
    6.9156    0.8289    0.2544 C   0  0  2  0  0  0  0  0  0  0  0  0
    1.4863   -2.2719   -1.5391 C   0  0  0  0  0  0  0  0  0  0  0  0
    6.3884    0.4346    1.6345 C   0  0  2  0  0  0  0  0  0  0  0  0
   -3.6278   -2.5847   -0.6382 C   0  0  0  0  0  0  0  0  0  0  0  0
   -2.5965   -4.7156    0.2258 C   0  0  1  0  0  0  0  0  0  0  0  0
   -3.4785   -4.0805   -0.8590 C   0  0  0  0  0  0  0  0  0  0  0  0
    5.8961    3.1500   -0.1732 C   0  0  0  0  0  0  0  0  0  0  0  0
   -2.6827   -0.4718    0.0306 C   0  0  0  0  0  0  0  0  0  0  0  0
    6.4419    1.6209   -2.0051 C   0  0  0  0  0  0  0  0  0  0  0  0
   -0.2760   -4.7169    1.2879 C   0  0  0  0  0  0  0  0  0  0  0  0
   -2.6255   -6.2393    0.0363 C   0  0  0  0  0  0  0  0  0  0  0  0
   -4.0280    1.4250   -0.3701 C   0  0  2  0  0  0  0  0  0  0  0  0
   -5.0166    1.9470   -1.4126 C   0  0  1  0  0  0  0  0  0  0  0  0
   -5.6670    3.2534   -0.9570 C   0  0  2  0  0  0  0  0  0  0  0  0
   -5.1145    2.5704    1.4029 C   0  0  1  0  0  0  0  0  0  0  0  0
   -6.1899    3.1410    0.4752 C   0  0  1  0  0  0  0  0  0  0  0  0
   -5.6494    2.3394    2.8126 C   0  0  0  0  0  0  0  0  0  0  0  0
    3.1204   -1.2409    0.0924 H   0  0  0  0  0  0  0  0  0  0  0  0
    4.6861    0.0094   -1.0963 H   0  0  0  0  0  0  0  0  0  0  0  0
    1.5305    1.3164   -2.3276 H   0  0  0  0  0  0  0  0  0  0  0  0
    2.6500   -0.0110   -2.4024 H   0  0  0  0  0  0  0  0  0  0  0  0
   -1.7083   -2.4168    1.4102 H   0  0  0  0  0  0  0  0  0  0  0  0
    3.0945    2.6107   -0.9665 H   0  0  0  0  0  0  0  0  0  0  0  0
    3.8654    2.0070   -2.4043 H   0  0  0  0  0  0  0  0  0  0  0  0
   -0.7929    0.3094   -1.6955 H   0  0  0  0  0  0  0  0  0  0  0  0
   -0.0015   -0.6570   -2.8950 H   0  0  0  0  0  0  0  0  0  0  0  0
    2.6676   -1.5760    2.3529 H   0  0  0  0  0  0  0  0  0  0  0  0
    1.7687   -0.0811    2.5433 H   0  0  0  0  0  0  0  0  0  0  0  0
    5.1370   -1.2191    1.0907 H   0  0  0  0  0  0  0  0  0  0  0  0
    4.6894   -0.4598    2.5941 H   0  0  0  0  0  0  0  0  0  0  0  0
   -2.4106   -1.1164   -2.6182 H   0  0  0  0  0  0  0  0  0  0  0  0
   -1.4367   -2.5426   -2.4242 H   0  0  0  0  0  0  0  0  0  0  0  0
    0.0058    1.7080   -0.5619 H   0  0  0  0  0  0  0  0  0  0  0  0
    1.3132    2.1303    0.4779 H   0  0  0  0  0  0  0  0  0  0  0  0
    0.1428    0.9557    1.0225 H   0  0  0  0  0  0  0  0  0  0  0  0
    0.2445   -2.0320    2.5049 H   0  0  0  0  0  0  0  0  0  0  0  0
    3.1797    2.6537    1.1291 H   0  0  0  0  0  0  0  0  0  0  0  0
    4.4715    2.2201    2.2079 H   0  0  0  0  0  0  0  0  0  0  0  0
    2.8926    1.5874    2.4968 H   0  0  0  0  0  0  0  0  0  0  0  0
    7.1904   -0.0874   -0.2864 H   0  0  0  0  0  0  0  0  0  0  0  0
    0.8636   -2.9142   -2.1667 H   0  0  0  0  0  0  0  0  0  0  0  0
    2.2626   -1.9028   -2.2097 H   0  0  0  0  0  0  0  0  0  0  0  0
    1.9832   -2.9197   -0.8077 H   0  0  0  0  0  0  0  0  0  0  0  0
    6.3760    1.2999    2.3044 H   0  0  0  0  0  0  0  0  0  0  0  0
   -4.2578   -2.1825   -1.4427 H   0  0  0  0  0  0  0  0  0  0  0  0
   -4.2012   -2.4371    0.2886 H   0  0  0  0  0  0  0  0  0  0  0  0
   -3.0510   -4.5064    1.2043 H   0  0  0  0  0  0  0  0  0  0  0  0
   -4.4772   -4.5346   -0.8396 H   0  0  0  0  0  0  0  0  0  0  0  0
   -3.0700   -4.2765   -1.8576 H   0  0  0  0  0  0  0  0  0  0  0  0
    5.7171    3.2893    0.8933 H   0  0  0  0  0  0  0  0  0  0  0  0
    6.8518    3.6424   -0.3901 H   0  0  0  0  0  0  0  0  0  0  0  0
    5.1363    3.7137   -0.7239 H   0  0  0  0  0  0  0  0  0  0  0  0
    5.8368    1.0830   -2.7537 H   0  0  0  0  0  0  0  0  0  0  0  0
   -0.1779   -5.7988    1.1528 H   0  0  0  0  0  0  0  0  0  0  0  0
    0.7508   -4.3425    1.2266 H   0  0  0  0  0  0  0  0  0  0  0  0
   -0.6654   -4.5284    2.2932 H   0  0  0  0  0  0  0  0  0  0  0  0
   -3.6585   -6.6054    0.0402 H   0  0  0  0  0  0  0  0  0  0  0  0
   -2.1076   -6.7569    0.8483 H   0  0  0  0  0  0  0  0  0  0  0  0
   -2.1738   -6.5427   -0.9133 H   0  0  0  0  0  0  0  0  0  0  0  0
   -0.3586   -5.3260   -1.0858 H   0  0  0  0  0  0  0  0  0  0  0  0
    8.5324    1.7129   -0.4145 H   0  0  0  0  0  0  0  0  0  0  0  0
    8.1707   -0.0854    2.2497 H   0  0  0  0  0  0  0  0  0  0  0  0
   -3.1544    2.0885   -0.3049 H   0  0  0  0  0  0  0  0  0  0  0  0
   -5.7833    1.1910   -1.6229 H   0  0  0  0  0  0  0  0  0  0  0  0
   -4.9608    4.0870   -1.0567 H   0  0  0  0  0  0  0  0  0  0  0  0
   -4.2537    3.2492    1.4736 H   0  0  0  0  0  0  0  0  0  0  0  0
   -7.0853    2.5076    0.4875 H   0  0  0  0  0  0  0  0  0  0  0  0
   -4.9411    2.5245   -3.2761 H   0  0  0  0  0  0  0  0  0  0  0  0
   -5.9908    3.2705    3.2740 H   0  0  0  0  0  0  0  0  0  0  0  0
   -6.4754    1.6205    2.8152 H   0  0  0  0  0  0  0  0  0  0  0  0
   -7.1706    4.3833   -1.4863 H   0  0  0  0  0  0  0  0  0  0  0  0
   -5.7854    4.9999    0.9376 H   0  0  0  0  0  0  0  0  0  0  0  0
   -4.3090    0.9798    3.1854 H   0  0  0  0  0  0  0  0  0  0  0  0
  1 29  1  0  0  0  0
  1 90  1  0  0  0  0
  2 31  1  0  0  0  0
  2 91  1  0  0  0  0
  3 33  1  0  0  0  0
  3 92  1  0  0  0  0
  4 38  1  0  0  0  0
  4 42  1  0  0  0  0
  5 38  2  0  0  0  0
  6 39  2  0  0  0  0
  7 42  1  0  0  0  0
  7 45  1  0  0  0  0
  8 43  1  0  0  0  0
  8 98  1  0  0  0  0
  9 44  1  0  0  0  0
  9101  1  0  0  0  0
 10 46  1  0  0  0  0
 10102  1  0  0  0  0
 11 47  1  0  0  0  0
 11103  1  0  0  0  0
 12 13  1  0  0  0  0
 12 15  1  0  0  0  0
 12 17  1  0  0  0  0
 12 27  1  0  0  0  0
 13 14  1  0  0  0  0
 13 23  1  0  0  0  0
 13 48  1  0  0  0  0
 14 16  1  0  0  0  0
 14 25  1  0  0  0  0
 14 30  1  0  0  0  0
 15 18  1  0  0  0  0
 15 22  1  0  0  0  0
 15 32  1  0  0  0  0
 16 20  1  0  0  0  0
 16 24  1  0  0  0  0
 16 49  1  0  0  0  0
 17 20  1  0  0  0  0
 17 50  1  0  0  0  0
 17 51  1  0  0  0  0
 18 19  1  0  0  0  0
 18 28  2  0  0  0  0
 19 21  1  0  0  0  0
 19 29  1  0  0  0  0
 19 52  1  0  0  0  0
 20 53  1  0  0  0  0
 20 54  1  0  0  0  0
 21 26  1  0  0  0  0
 21 34  1  0  0  0  0
 21 38  1  0  0  0  0
 22 26  1  0  0  0  0
 22 55  1  0  0  0  0
 22 56  1  0  0  0  0
 23 28  1  0  0  0  0
 23 57  1  0  0  0  0
 23 58  1  0  0  0  0
 24 31  1  0  0  0  0
 24 37  1  0  0  0  0
 24 39  1  0  0  0  0
 25 33  1  0  0  0  0
 25 59  1  0  0  0  0
 25 60  1  0  0  0  0
 26 61  1  0  0  0  0
 26 62  1  0  0  0  0
 27 63  1  0  0  0  0
 27 64  1  0  0  0  0
 27 65  1  0  0  0  0
 28 66  1  0  0  0  0
 29 35  1  0  0  0  0
 29 40  1  0  0  0  0
 30 67  1  0  0  0  0
 30 68  1  0  0  0  0
 30 69  1  0  0  0  0
 31 33  1  0  0  0  0
 31 70  1  0  0  0  0
 32 71  1  0  0  0  0
 32 72  1  0  0  0  0
 32 73  1  0  0  0  0
 33 74  1  0  0  0  0
 34 36  1  0  0  0  0
 34 75  1  0  0  0  0
 34 76  1  0  0  0  0
 35 36  1  0  0  0  0
 35 41  1  0  0  0  0
 35 77  1  0  0  0  0
 36 78  1  0  0  0  0
 36 79  1  0  0  0  0
 37 80  1  0  0  0  0
 37 81  1  0  0  0  0
 37 82  1  0  0  0  0
 39 83  1  0  0  0  0
 40 84  1  0  0  0  0
 40 85  1  0  0  0  0
 40 86  1  0  0  0  0
 41 87  1  0  0  0  0
 41 88  1  0  0  0  0
 41 89  1  0  0  0  0
 42 43  1  0  0  0  0
 42 93  1  0  0  0  0
 43 44  1  0  0  0  0
 43 94  1  0  0  0  0
 44 46  1  0  0  0  0
 44 95  1  0  0  0  0
 45 46  1  0  0  0  0
 45 47  1  0  0  0  0
 45 96  1  0  0  0  0
 46 97  1  0  0  0  0
 47 99  1  0  0  0  0
 47100  1  0  0  0  0
M  END
> <PUBCHEM_COMPOUND_CID>
190934

> <PUBCHEM_CONFORMER_RMSD>
1.2

> <PUBCHEM_CONFORMER_DIVERSEORDER>
1
12
6
5
7
3
8
10
9
4
11
2

> <PUBCHEM_MMFF94_PARTIAL_CHARGES>
38
1 -0.68
10 -0.68
101 0.4
102 0.4
103 0.4
11 -0.68
15 0.14
18 -0.28
19 0.14
2 -0.68
21 0.06
23 0.14
24 0.06
28 -0.29
29 0.28
3 -0.68
31 0.28
33 0.28
38 0.66
39 0.45
4 -0.43
42 0.56
43 0.28
44 0.28
45 0.28
46 0.28
47 0.28
5 -0.57
6 -0.57
66 0.15
7 -0.56
8 -0.68
83 0.06
9 -0.68
90 0.4
91 0.4
92 0.4
98 0.4

> <PUBCHEM_EFFECTIVE_ROTOR_COUNT>
8.8

> <PUBCHEM_PHARMACOPHORE_FEATURES>
23
1 1 acceptor
1 1 donor
1 10 acceptor
1 10 donor
1 11 acceptor
1 11 donor
1 2 acceptor
1 2 donor
1 3 acceptor
1 3 donor
1 5 acceptor
1 6 acceptor
1 7 acceptor
1 8 acceptor
1 8 donor
1 9 acceptor
1 9 donor
6 12 13 14 16 17 20 rings
6 12 13 15 18 23 28 rings
6 14 16 24 25 31 33 rings
6 15 18 19 21 22 26 rings
6 19 21 29 34 35 36 rings
6 7 42 43 44 45 46 rings

> <PUBCHEM_HEAVY_ATOM_COUNT>
47

> <PUBCHEM_ATOM_DEF_STEREO_COUNT>
17

> <PUBCHEM_ATOM_UDEF_STEREO_COUNT>
0

> <PUBCHEM_BOND_DEF_STEREO_COUNT>
0

> <PUBCHEM_BOND_UDEF_STEREO_COUNT>
0

> <PUBCHEM_ISOTOPIC_ATOM_COUNT>
0

> <PUBCHEM_COMPONENT_COUNT>
1

> <PUBCHEM_CACTVS_TAUTO_COUNT>
1

> <PUBCHEM_CONFORMER_ID>
0002E9D600000001

> <PUBCHEM_MMFF94_ENERGY>
191.9059

> <PUBCHEM_FEATURE_SELFOVERLAP>
116.842

> <PUBCHEM_SHAPE_FINGERPRINT>
10675989 125 18054234228110202863
11062273 23 18269558407040573795
11578080 2 18269856284048742118
11991303 11 18408608075709720428
1200032 147 17202219425742533185
12013929 112 18337965476787419198
12107183 9 18188475909823509138
12422481 6 17458621164382810660
12788726 201 18267572680619570639
12988421 55 18338518539262121397
13636023 20 14404890341639860432
13782708 43 17415004848765766758
14068700 675 17901942277234130191
14294032 229 18338526330353993043
14705955 166 17835774745442043738
14856354 85 18193559102097215622
15064981 113 18271800267940942206
15183329 4 17096634600207471190
15439362 3 18269275664631350902
15684973 49 18198602484271173310
16990350 14 17908147572731628521
16992828 155 17894619358036408749
18393751 57 18335705980213432301
19311894 1 18338799030053277549
21033648 29 18337964389627988181
21772528 278 17844274898570691377
21796203 349 9798263361549903901
21814621 53 18131068286413603762
23522609 53 17822867489025052596
23569914 152 16841375012411791540
255183 313 18259989271074934989
3388396 114 17253161233344034877
3418910 222 17469891442347313676
3552219 110 17533498087235581199
397830 11 12540698167408730444
4058900 60 18341332172200295193
4112364 45 18191307074913195779
4144715 1 18339644563717669298
42767 28 14979668854407285041
44880568 143 18194136325012977948
497634 4 17897150545673184134
504843 32 18410011044358254915
6009941 240 18272933834891245646
6058803 2 17897444115472400854
6086070 43 16630231589894047974
6691757 9 18412821395582465234
6695519 79 17981641241694720523
6700243 42 17694821740023340966
9555976 147 18264207075220486414
9849439 229 18410578349386986733
9896288 288 18261680371619816443

> <PUBCHEM_SHAPE_MULTIPOLES>
902.68
18.42
6.56
2.41
18.99
7.58
-0.64
-24.58
-1.53
-13.72
-0.06
-0.5
-1.45
-2.36

> <PUBCHEM_SHAPE_SELFOVERLAP>
1925.74

> <PUBCHEM_SHAPE_VOLUME>
491.8

> <PUBCHEM_COORDINATE_TYPE>
2
5
10

$$$$
