91753574
  -OEChem-09292014013D

 40 41  0     1  0  0  0  0  0999 V2000
   -0.9871    1.2844   -0.8782 O   0  0  0  0  0  0  0  0  0  0  0  0
    0.0806    1.4064    0.0666 C   0  0  1  0  0  0  0  0  0  0  0  0
   -1.3238    1.0549    0.4965 C   0  0  2  0  0  0  0  0  0  0  0  0
    1.1353    0.3422   -0.0792 C   0  0  1  0  0  0  0  0  0  0  0  0
    2.1986    0.7500   -1.1054 C   0  0  0  0  0  0  0  0  0  0  0  0
    0.5794    2.7977    0.2579 C   0  0  0  0  0  0  0  0  0  0  0  0
    1.7958    0.0315    1.2748 C   0  0  0  0  0  0  0  0  0  0  0  0
   -1.7767   -0.3274    0.8040 C   0  0  0  0  0  0  0  0  0  0  0  0
    3.2421   -0.3542   -1.2957 C   0  0  0  0  0  0  0  0  0  0  0  0
    3.0491   -0.7844    1.1539 C   0  0  0  0  0  0  0  0  0  0  0  0
    3.7034   -0.9797   -0.0037 C   0  0  0  0  0  0  0  0  0  0  0  0
   -3.2724   -0.4965    0.8972 C   0  0  0  0  0  0  0  0  0  0  0  0
    4.9336   -1.8341   -0.0850 C   0  0  0  0  0  0  0  0  0  0  0  0
   -4.1255   -0.8321   -0.0891 C   0  0  0  0  0  0  0  0  0  0  0  0
   -5.6116   -0.9844    0.0718 C   0  0  0  0  0  0  0  0  0  0  0  0
   -3.6208   -1.0742   -1.4864 C   0  0  0  0  0  0  0  0  0  0  0  0
   -1.8929    1.8128    1.0217 H   0  0  0  0  0  0  0  0  0  0  0  0
    0.6802   -0.5844   -0.4532 H   0  0  0  0  0  0  0  0  0  0  0  0
    2.7231    1.6573   -0.7793 H   0  0  0  0  0  0  0  0  0  0  0  0
    1.7350    0.9855   -2.0710 H   0  0  0  0  0  0  0  0  0  0  0  0
    1.3284    2.8661    1.0513 H   0  0  0  0  0  0  0  0  0  0  0  0
   -0.2361    3.4760    0.5343 H   0  0  0  0  0  0  0  0  0  0  0  0
    1.0141    3.1944   -0.6655 H   0  0  0  0  0  0  0  0  0  0  0  0
    1.0820   -0.5141    1.9032 H   0  0  0  0  0  0  0  0  0  0  0  0
    2.0471    0.9460    1.8228 H   0  0  0  0  0  0  0  0  0  0  0  0
   -1.3613   -1.0648    0.1097 H   0  0  0  0  0  0  0  0  0  0  0  0
   -1.3665   -0.6074    1.7828 H   0  0  0  0  0  0  0  0  0  0  0  0
    4.0998    0.0693   -1.8320 H   0  0  0  0  0  0  0  0  0  0  0  0
    2.8232   -1.1434   -1.9324 H   0  0  0  0  0  0  0  0  0  0  0  0
    3.4229   -1.2360    2.0691 H   0  0  0  0  0  0  0  0  0  0  0  0
   -3.6893   -0.3201    1.8878 H   0  0  0  0  0  0  0  0  0  0  0  0
    5.7863   -1.2408   -0.4307 H   0  0  0  0  0  0  0  0  0  0  0  0
    5.2003   -2.2682    0.8843 H   0  0  0  0  0  0  0  0  0  0  0  0
    4.7759   -2.6590   -0.7874 H   0  0  0  0  0  0  0  0  0  0  0  0
   -3.7908   -2.1193   -1.7668 H   0  0  0  0  0  0  0  0  0  0  0  0
   -6.1407   -0.2735   -0.5707 H   0  0  0  0  0  0  0  0  0  0  0  0
   -5.9262   -0.8008    1.1044 H   0  0  0  0  0  0  0  0  0  0  0  0
   -5.9221   -1.9991   -0.1972 H   0  0  0  0  0  0  0  0  0  0  0  0
   -4.1682   -0.4401   -2.1929 H   0  0  0  0  0  0  0  0  0  0  0  0
   -2.5608   -0.8621   -1.6351 H   0  0  0  0  0  0  0  0  0  0  0  0
  1  2  1  0  0  0  0
  1  3  1  0  0  0  0
  2  3  1  0  0  0  0
  2  4  1  0  0  0  0
  2  6  1  0  0  0  0
  3  8  1  0  0  0  0
  3 17  1  0  0  0  0
  4  5  1  0  0  0  0
  4  7  1  0  0  0  0
  4 18  1  0  0  0  0
  5  9  1  0  0  0  0
  5 19  1  0  0  0  0
  5 20  1  0  0  0  0
  6 21  1  0  0  0  0
  6 22  1  0  0  0  0
  6 23  1  0  0  0  0
  7 10  1  0  0  0  0
  7 24  1  0  0  0  0
  7 25  1  0  0  0  0
  8 12  1  0  0  0  0
  8 26  1  0  0  0  0
  8 27  1  0  0  0  0
  9 11  1  0  0  0  0
  9 28  1  0  0  0  0
  9 29  1  0  0  0  0
 10 11  2  0  0  0  0
 10 30  1  0  0  0  0
 11 13  1  0  0  0  0
 12 14  2  0  0  0  0
 12 31  1  0  0  0  0
 13 32  1  0  0  0  0
 13 33  1  0  0  0  0
 13 34  1  0  0  0  0
 14 15  1  0  0  0  0
 14 16  1  0  0  0  0
 15 36  1  0  0  0  0
 15 37  1  0  0  0  0
 15 38  1  0  0  0  0
 16 35  1  0  0  0  0
 16 39  1  0  0  0  0
 16 40  1  0  0  0  0
M  END
> <PUBCHEM_COMPOUND_CID>
91753574

> <PUBCHEM_CONFORMER_RMSD>
0.6

> <PUBCHEM_CONFORMER_DIVERSEORDER>
2
26
30
24
20
8
27
21
16
23
15
18
31
25
1
12
32
22
13
11
14
5
19
29
28
6
17
7
4
10
3
9

> <PUBCHEM_MMFF94_PARTIAL_CHARGES>
18
1 -0.3
10 -0.29
11 -0.28
12 -0.29
13 0.14
14 -0.28
15 0.14
16 0.14
17 0.1
2 -0.04
3 -0.05
30 0.15
31 0.15
4 0.09
6 0.09
7 0.14
8 0.23
9 0.14

> <PUBCHEM_EFFECTIVE_ROTOR_COUNT>
4.4

> <PUBCHEM_PHARMACOPHORE_FEATURES>
3
1 1 acceptor
3 14 15 16 hydrophobe
6 4 5 7 9 10 11 rings

> <PUBCHEM_HEAVY_ATOM_COUNT>
16

> <PUBCHEM_ATOM_DEF_STEREO_COUNT>
2

> <PUBCHEM_ATOM_UDEF_STEREO_COUNT>
1

> <PUBCHEM_BOND_DEF_STEREO_COUNT>
0

> <PUBCHEM_BOND_UDEF_STEREO_COUNT>
0

> <PUBCHEM_ISOTOPIC_ATOM_COUNT>
0

> <PUBCHEM_COMPONENT_COUNT>
1

> <PUBCHEM_CACTVS_TAUTO_COUNT>
1

> <PUBCHEM_CONFORMER_ID>
05780C6600000002

> <PUBCHEM_MMFF94_ENERGY>
19.0359

> <PUBCHEM_FEATURE_SELFOVERLAP>
15.223

> <PUBCHEM_SHAPE_FINGERPRINT>
11046707 91 18340770355654120194
11132069 177 11671780498802345529
11543360 7 15574720222174238123
12251169 10 14405182871846423873
12346177 29 18201999881270135897
12363563 72 18411142428378664998
12507560 40 14476973237329953850
12553582 1 18410022039036299611
12616999 72 15430027768918620019
12633257 1 15841261623155788550
12707595 3 18334858354846368921
12892183 10 15123519051310993042
13583140 156 15626219057596260273
14123255 52 9151174255195329707
14123260 362 10953744387033050831
14178342 30 17630904715323462073
1420 369 18342461408906940830
14251752 14 17822285722429120429
14252887 29 18343015627349695976
14341114 328 14836401466820882723
14366163 111 14634864258583490423
14576447 43 17894913988872258506
15188451 53 16845279580250278279
15342168 16 9367351427192893147
15775835 57 10519979344777825690
15848700 24 18411415120215859730
16752209 62 18114454570421434819
17834072 8 18335130974302180773
1798214 20 18040713666778191363
1798214 55 9367345942023874826
1813 80 18272099291726352788
18186145 218 16515405183452035433
18222031 100 18059863873683801645
18915474 69 18261117391310979598
193927 3 18334870389144700890
19862831 5 17095243618016445330
200 152 18186522077275621078
20281475 54 18335709368340780881
20361792 2 18411980273550982813
20369508 70 18335699494110883561
20388580 30 18333737926801948332
20645477 56 9799396837594063018
20645477 70 18262236745861444195
20671657 53 18409451409897838561
20871999 31 17822009757346908660
21250096 35 18409730659917706307
21713013 43 17022908994683692675
22646028 28 18342176682771537431
22713019 99 18259703415273695923
22854114 59 11023832777563229715
23402539 116 18261676957093642890
23402655 69 14996280292969151366
23557571 272 18340485578443768576
23559900 14 17894918477102338208
25 1 11602820194359515120
251288 83 17774715454769044130
26918003 58 16343702123443655403
270888 7 8934991564703335342
276578 36 9943812179269566960
2871803 45 17894914005761905946
2916195 48 10953754316892177950
31174 14 17917700323548890800
3286 77 17632574946479438154
32948 21 17894904127722032685
351380 3 18412263930413596035
4047638 21 9295289447877226858
4259306 186 18334577902051301694
4325135 7 18341895217070342716
465052 167 18339652238792903655
49207404 50 12967138241323876717
59682541 52 14201662135711118418
76465 3 18342454854965766407
7970288 3 18411700989082264559
83771 10 18342741801509207592
960060 61 17895194449983323847

> <PUBCHEM_SHAPE_MULTIPOLES>
323.4
9.87
1.95
1.27
6.06
1.16
0.15
-7.87
0.71
-0.8
0.06
-0.17
-0.16
-0.38

> <PUBCHEM_SHAPE_SELFOVERLAP>
646.676

> <PUBCHEM_SHAPE_VOLUME>
190.9

> <PUBCHEM_COORDINATE_TYPE>
2
5
10

$$$$
