9828626
  -OEChem-09292010513D

 96 97  0     0  0  0  0  0  0999 V2000
   11.9779    1.2461   -0.6882 C   0  0  0  0  0  0  0  0  0  0  0  0
  -12.4556    0.3508    0.7466 C   0  0  0  0  0  0  0  0  0  0  0  0
   12.2194    2.7772   -0.7892 C   0  0  0  0  0  0  0  0  0  0  0  0
  -13.4141    1.5541    0.9619 C   0  0  0  0  0  0  0  0  0  0  0  0
   12.0497    3.4751    0.5484 C   0  0  0  0  0  0  0  0  0  0  0  0
  -13.6348    2.3483   -0.3130 C   0  0  0  0  0  0  0  0  0  0  0  0
   10.7241    0.9221    0.1579 C   0  0  0  0  0  0  0  0  0  0  0  0
  -11.2211    0.7501   -0.0955 C   0  0  0  0  0  0  0  0  0  0  0  0
   10.6346    3.2698    1.0677 C   0  0  0  0  0  0  0  0  0  0  0  0
  -12.3113    2.9039   -0.8167 C   0  0  0  0  0  0  0  0  0  0  0  0
   10.1100    1.8550    0.9284 C   0  0  0  0  0  0  0  0  0  0  0  0
  -11.1581    1.9214   -0.7775 C   0  0  0  0  0  0  0  0  0  0  0  0
   13.2189    0.5826   -0.0479 C   0  0  0  0  0  0  0  0  0  0  0  0
   11.8452    0.7384   -2.1449 C   0  0  0  0  0  0  0  0  0  0  0  0
  -13.2251   -0.7828    0.0302 C   0  0  0  0  0  0  0  0  0  0  0  0
  -12.0622   -0.1393    2.1617 C   0  0  0  0  0  0  0  0  0  0  0  0
   10.2612   -0.4546    0.0944 C   0  0  0  0  0  0  0  0  0  0  0  0
  -10.1420   -0.2236   -0.1301 C   0  0  0  0  0  0  0  0  0  0  0  0
    8.8543    1.6406    1.7417 C   0  0  0  0  0  0  0  0  0  0  0  0
   -9.9750    2.4142   -1.5784 C   0  0  0  0  0  0  0  0  0  0  0  0
    8.9618   -0.7903    0.0636 C   0  0  0  0  0  0  0  0  0  0  0  0
   -8.8434    0.1169   -0.0984 C   0  0  0  0  0  0  0  0  0  0  0  0
    8.4176   -2.1471    0.0060 C   0  0  0  0  0  0  0  0  0  0  0  0
   -7.7065   -0.8036   -0.1261 C   0  0  0  0  0  0  0  0  0  0  0  0
    9.3969   -3.2963    0.0137 C   0  0  0  0  0  0  0  0  0  0  0  0
   -8.0107   -2.2829   -0.1887 C   0  0  0  0  0  0  0  0  0  0  0  0
    7.0955   -2.4206   -0.0227 C   0  0  0  0  0  0  0  0  0  0  0  0
   -6.4137   -0.4133   -0.0922 C   0  0  0  0  0  0  0  0  0  0  0  0
    5.9778   -1.4977   -0.0046 C   0  0  0  0  0  0  0  0  0  0  0  0
   -5.2196   -1.2387   -0.1149 C   0  0  0  0  0  0  0  0  0  0  0  0
    4.6883   -1.8736   -0.0367 C   0  0  0  0  0  0  0  0  0  0  0  0
   -3.9809   -0.7173   -0.0757 C   0  0  0  0  0  0  0  0  0  0  0  0
    3.5149   -0.9949   -0.0031 C   0  0  0  0  0  0  0  0  0  0  0  0
   -2.7230   -1.4646   -0.0971 C   0  0  0  0  0  0  0  0  0  0  0  0
    3.7662    0.4908    0.0531 C   0  0  0  0  0  0  0  0  0  0  0  0
   -2.8000   -2.9715   -0.1367 C   0  0  0  0  0  0  0  0  0  0  0  0
    2.2920   -1.5664   -0.0446 C   0  0  0  0  0  0  0  0  0  0  0  0
   -1.5090   -0.8752   -0.0550 C   0  0  0  0  0  0  0  0  0  0  0  0
    1.0018   -0.9033   -0.0275 C   0  0  0  0  0  0  0  0  0  0  0  0
   -0.2019   -1.4998   -0.0700 C   0  0  0  0  0  0  0  0  0  0  0  0
   13.2228    2.9828   -1.1829 H   0  0  0  0  0  0  0  0  0  0  0  0
   11.5137    3.2221   -1.5047 H   0  0  0  0  0  0  0  0  0  0  0  0
  -14.3815    1.2102    1.3493 H   0  0  0  0  0  0  0  0  0  0  0  0
  -13.0026    2.2298    1.7249 H   0  0  0  0  0  0  0  0  0  0  0  0
   12.2487    4.5476    0.4399 H   0  0  0  0  0  0  0  0  0  0  0  0
   12.7769    3.0945    1.2748 H   0  0  0  0  0  0  0  0  0  0  0  0
  -14.3315    3.1735   -0.1251 H   0  0  0  0  0  0  0  0  0  0  0  0
  -14.0967    1.7186   -1.0822 H   0  0  0  0  0  0  0  0  0  0  0  0
   10.6218    3.5758    2.1209 H   0  0  0  0  0  0  0  0  0  0  0  0
    9.9505    3.9412    0.5329 H   0  0  0  0  0  0  0  0  0  0  0  0
  -12.4711    3.2586   -1.8424 H   0  0  0  0  0  0  0  0  0  0  0  0
  -12.0332    3.7800   -0.2167 H   0  0  0  0  0  0  0  0  0  0  0  0
   14.1385    0.8942   -0.5569 H   0  0  0  0  0  0  0  0  0  0  0  0
   13.1778   -0.5103   -0.1111 H   0  0  0  0  0  0  0  0  0  0  0  0
   13.3203    0.8454    1.0108 H   0  0  0  0  0  0  0  0  0  0  0  0
   10.9411    1.1345   -2.6220 H   0  0  0  0  0  0  0  0  0  0  0  0
   11.7958   -0.3551   -2.1953 H   0  0  0  0  0  0  0  0  0  0  0  0
   12.7058    1.0484   -2.7494 H   0  0  0  0  0  0  0  0  0  0  0  0
  -12.6529   -1.7169    0.0090 H   0  0  0  0  0  0  0  0  0  0  0  0
  -13.4629   -0.5213   -1.0066 H   0  0  0  0  0  0  0  0  0  0  0  0
  -14.1691   -1.0024    0.5424 H   0  0  0  0  0  0  0  0  0  0  0  0
  -11.4827   -1.0686    2.1275 H   0  0  0  0  0  0  0  0  0  0  0  0
  -12.9520   -0.3390    2.7704 H   0  0  0  0  0  0  0  0  0  0  0  0
  -11.4587    0.6100    2.6872 H   0  0  0  0  0  0  0  0  0  0  0  0
   11.0303   -1.2197    0.1104 H   0  0  0  0  0  0  0  0  0  0  0  0
  -10.4405   -1.2632   -0.2131 H   0  0  0  0  0  0  0  0  0  0  0  0
    8.8542    2.2927    2.6236 H   0  0  0  0  0  0  0  0  0  0  0  0
    8.7670    0.6319    2.1530 H   0  0  0  0  0  0  0  0  0  0  0  0
    7.9652    1.8968    1.1574 H   0  0  0  0  0  0  0  0  0  0  0  0
   -9.4152    1.6132   -2.0674 H   0  0  0  0  0  0  0  0  0  0  0  0
   -9.3125    3.0236   -0.9560 H   0  0  0  0  0  0  0  0  0  0  0  0
  -10.3115    3.0522   -2.4046 H   0  0  0  0  0  0  0  0  0  0  0  0
    8.2275    0.0010   -0.0241 H   0  0  0  0  0  0  0  0  0  0  0  0
   -8.5489    1.1531    0.0437 H   0  0  0  0  0  0  0  0  0  0  0  0
   10.0063   -3.2815    0.9240 H   0  0  0  0  0  0  0  0  0  0  0  0
    8.8963   -4.2706   -0.0196 H   0  0  0  0  0  0  0  0  0  0  0  0
   10.0581   -3.2475   -0.8584 H   0  0  0  0  0  0  0  0  0  0  0  0
   -8.6394   -2.5716    0.6623 H   0  0  0  0  0  0  0  0  0  0  0  0
   -8.5563   -2.5129   -1.1117 H   0  0  0  0  0  0  0  0  0  0  0  0
   -7.1589   -2.9606   -0.1645 H   0  0  0  0  0  0  0  0  0  0  0  0
    6.7993   -3.4695   -0.0572 H   0  0  0  0  0  0  0  0  0  0  0  0
   -6.2190    0.6589   -0.0436 H   0  0  0  0  0  0  0  0  0  0  0  0
    6.2129   -0.4413    0.0498 H   0  0  0  0  0  0  0  0  0  0  0  0
   -5.3291   -2.3123   -0.1734 H   0  0  0  0  0  0  0  0  0  0  0  0
    4.4735   -2.9412   -0.0867 H   0  0  0  0  0  0  0  0  0  0  0  0
   -3.8701    0.3654   -0.0232 H   0  0  0  0  0  0  0  0  0  0  0  0
    4.3461    0.8155   -0.8182 H   0  0  0  0  0  0  0  0  0  0  0  0
    2.8567    1.0945    0.0613 H   0  0  0  0  0  0  0  0  0  0  0  0
    4.3209    0.7513    0.9617 H   0  0  0  0  0  0  0  0  0  0  0  0
   -1.8581   -3.5144   -0.0789 H   0  0  0  0  0  0  0  0  0  0  0  0
   -3.2843   -3.2958   -1.0655 H   0  0  0  0  0  0  0  0  0  0  0  0
   -3.3975   -3.3382    0.7070 H   0  0  0  0  0  0  0  0  0  0  0  0
    2.2247   -2.6537   -0.0937 H   0  0  0  0  0  0  0  0  0  0  0  0
   -1.4756    0.2139   -0.0111 H   0  0  0  0  0  0  0  0  0  0  0  0
    1.0065    0.1812    0.0291 H   0  0  0  0  0  0  0  0  0  0  0  0
   -0.1705   -2.5823   -0.1308 H   0  0  0  0  0  0  0  0  0  0  0  0
  1  3  1  0  0  0  0
  1  7  1  0  0  0  0
  1 13  1  0  0  0  0
  1 14  1  0  0  0  0
  2  4  1  0  0  0  0
  2  8  1  0  0  0  0
  2 15  1  0  0  0  0
  2 16  1  0  0  0  0
  3  5  1  0  0  0  0
  3 41  1  0  0  0  0
  3 42  1  0  0  0  0
  4  6  1  0  0  0  0
  4 43  1  0  0  0  0
  4 44  1  0  0  0  0
  5  9  1  0  0  0  0
  5 45  1  0  0  0  0
  5 46  1  0  0  0  0
  6 10  1  0  0  0  0
  6 47  1  0  0  0  0
  6 48  1  0  0  0  0
  7 11  2  0  0  0  0
  7 17  1  0  0  0  0
  8 12  2  0  0  0  0
  8 18  1  0  0  0  0
  9 11  1  0  0  0  0
  9 49  1  0  0  0  0
  9 50  1  0  0  0  0
 10 12  1  0  0  0  0
 10 51  1  0  0  0  0
 10 52  1  0  0  0  0
 11 19  1  0  0  0  0
 12 20  1  0  0  0  0
 13 53  1  0  0  0  0
 13 54  1  0  0  0  0
 13 55  1  0  0  0  0
 14 56  1  0  0  0  0
 14 57  1  0  0  0  0
 14 58  1  0  0  0  0
 15 59  1  0  0  0  0
 15 60  1  0  0  0  0
 15 61  1  0  0  0  0
 16 62  1  0  0  0  0
 16 63  1  0  0  0  0
 16 64  1  0  0  0  0
 17 21  2  0  0  0  0
 17 65  1  0  0  0  0
 18 22  2  0  0  0  0
 18 66  1  0  0  0  0
 19 67  1  0  0  0  0
 19 68  1  0  0  0  0
 19 69  1  0  0  0  0
 20 70  1  0  0  0  0
 20 71  1  0  0  0  0
 20 72  1  0  0  0  0
 21 23  1  0  0  0  0
 21 73  1  0  0  0  0
 22 24  1  0  0  0  0
 22 74  1  0  0  0  0
 23 25  1  0  0  0  0
 23 27  2  0  0  0  0
 24 26  1  0  0  0  0
 24 28  2  0  0  0  0
 25 75  1  0  0  0  0
 25 76  1  0  0  0  0
 25 77  1  0  0  0  0
 26 78  1  0  0  0  0
 26 79  1  0  0  0  0
 26 80  1  0  0  0  0
 27 29  1  0  0  0  0
 27 81  1  0  0  0  0
 28 30  1  0  0  0  0
 28 82  1  0  0  0  0
 29 31  2  0  0  0  0
 29 83  1  0  0  0  0
 30 32  2  0  0  0  0
 30 84  1  0  0  0  0
 31 33  1  0  0  0  0
 31 85  1  0  0  0  0
 32 34  1  0  0  0  0
 32 86  1  0  0  0  0
 33 35  1  0  0  0  0
 33 37  2  0  0  0  0
 34 36  1  0  0  0  0
 34 38  2  0  0  0  0
 35 87  1  0  0  0  0
 35 88  1  0  0  0  0
 35 89  1  0  0  0  0
 36 90  1  0  0  0  0
 36 91  1  0  0  0  0
 36 92  1  0  0  0  0
 37 39  1  0  0  0  0
 37 93  1  0  0  0  0
 38 40  1  0  0  0  0
 38 94  1  0  0  0  0
 39 40  2  0  0  0  0
 39 95  1  0  0  0  0
 40 96  1  0  0  0  0
M  END
> <PUBCHEM_COMPOUND_CID>
9828626

> <PUBCHEM_CONFORMER_RMSD>
1.2

> <PUBCHEM_CONFORMER_DIVERSEORDER>
1
154
81
59
26
57
45
150
53
32
74
21
155
19
64
87
144
29
168
85
2
6
123
161
42
24
90
97
127
17
88
117
136
23
156
94
145
103
110
47
139
62
71
147
51
7
106
69
118
39
124
49
9
38
157
160
3
25
56
4
142
92
50
153
135
15
8
63
40
43
114
174
172
5
30
151
16
149
169
12
28
164
84
11
105
72
79
46
130
126
131
107
73
77
159
13
66
52
54
14
10
89
104
22
78
55
95
108
80
171
98
133
109
99
61
93
27
120
122
165
34
115
68
75
121
170
158
65
18
20
140
58
31
113
162
96
143
119
60
134
41
141
125
86
100
83
48
37
146
102
129
91
76
44
166
137
101
128
138
132
70
173
112
35
163
33
116
111
67
148
82
167
36
152

> <PUBCHEM_MMFF94_PARTIAL_CHARGES>
46
1 0.14
10 0.14
11 -0.28
12 -0.28
17 -0.15
18 -0.15
19 0.14
2 0.14
20 0.14
21 -0.15
22 -0.15
23 -0.14
24 -0.14
25 0.14
26 0.14
27 -0.15
28 -0.15
29 -0.15
30 -0.15
31 -0.15
32 -0.15
33 -0.14
34 -0.14
35 0.14
36 0.14
37 -0.15
38 -0.15
39 -0.15
40 -0.15
65 0.15
66 0.15
7 -0.14
73 0.15
74 0.15
8 -0.14
81 0.15
82 0.15
83 0.15
84 0.15
85 0.15
86 0.15
9 0.14
93 0.15
94 0.15
95 0.15
96 0.15

> <PUBCHEM_EFFECTIVE_ROTOR_COUNT>
11.6

> <PUBCHEM_PHARMACOPHORE_FEATURES>
8
1 25 hydrophobe
1 26 hydrophobe
1 35 hydrophobe
1 36 hydrophobe
3 1 13 14 hydrophobe
3 2 15 16 hydrophobe
6 1 3 5 7 9 11 rings
6 2 4 6 8 10 12 rings

> <PUBCHEM_HEAVY_ATOM_COUNT>
40

> <PUBCHEM_ATOM_DEF_STEREO_COUNT>
0

> <PUBCHEM_ATOM_UDEF_STEREO_COUNT>
0

> <PUBCHEM_BOND_DEF_STEREO_COUNT>
9

> <PUBCHEM_BOND_UDEF_STEREO_COUNT>
0

> <PUBCHEM_ISOTOPIC_ATOM_COUNT>
0

> <PUBCHEM_COMPONENT_COUNT>
1

> <PUBCHEM_CACTVS_TAUTO_COUNT>
1

> <PUBCHEM_CONFORMER_ID>
0095F91200000001

> <PUBCHEM_MMFF94_ENERGY>
106.7165

> <PUBCHEM_FEATURE_SELFOVERLAP>
40.601

> <PUBCHEM_SHAPE_FINGERPRINT>
11061554 47 18114176415386190845
11146346 171 8286209348956996246
14202775 3 9799688224980921892
15061470 23 18408040702256716303
15145343 6 17676494968325739135
15247644 1 9079106766460385765
16728433 110 18410012143827288322
20105231 36 8862942788459736143
21026386 69 17822565037887992196
232437 2 9079113362723082951
23378982 100 14635134717618285486
24893992 56 9799696996686281212
3092352 35 8430314636737427063
3991529 128 17385724712472873460
5381727 24 8862944974328954150

> <PUBCHEM_SHAPE_MULTIPOLES>
823.18
85.53
3.66
1.15
59.82
1.27
-0.08
65.82
-1.23
-6.6
0.09
-0.04
0.68
2.9

> <PUBCHEM_SHAPE_SELFOVERLAP>
1665.476

> <PUBCHEM_SHAPE_VOLUME>
478

> <PUBCHEM_COORDINATE_TYPE>
2
5
10

$$$$
