66680144
  -OEChem-09292013363D

 31 34  0     0  0  0  0  0  0999 V2000
   -2.4367    1.8277   -0.1763 N   0  0  0  0  0  0  0  0  0  0  0  0
   -1.2990   -0.3189   -0.0330 C   0  0  0  0  0  0  0  0  0  0  0  0
    0.0045    0.3091   -0.0230 C   0  0  0  0  0  0  0  0  0  0  0  0
   -1.5101   -1.8170    0.0605 C   0  0  0  0  0  0  0  0  0  0  0  0
    1.3361   -0.3165   -0.0518 C   0  0  0  0  0  0  0  0  0  0  0  0
   -2.8977   -2.2618    0.5466 C   0  0  0  0  0  0  0  0  0  0  0  0
   -2.4545    0.4831   -0.1490 C   0  0  0  0  0  0  0  0  0  0  0  0
   -0.0225    1.7288    0.0247 C   0  0  0  0  0  0  0  0  0  0  0  0
    2.4980    0.4949    0.1037 C   0  0  0  0  0  0  0  0  0  0  0  0
   -4.0036   -1.3819    0.0696 C   0  0  0  0  0  0  0  0  0  0  0  0
   -3.7917   -0.1044   -0.2597 C   0  0  0  0  0  0  0  0  0  0  0  0
    1.1416    2.4869    0.1520 C   0  0  0  0  0  0  0  0  0  0  0  0
   -1.2335    2.4098   -0.0583 C   0  0  0  0  0  0  0  0  0  0  0  0
    2.3821    1.8764    0.2182 C   0  0  0  0  0  0  0  0  0  0  0  0
    1.6073   -1.6956   -0.2619 C   0  0  0  0  0  0  0  0  0  0  0  0
    3.7904   -0.0588    0.1256 C   0  0  0  0  0  0  0  0  0  0  0  0
    2.8977   -2.2400   -0.2479 C   0  0  0  0  0  0  0  0  0  0  0  0
    3.9912   -1.4217   -0.0400 C   0  0  0  0  0  0  0  0  0  0  0  0
   -1.3337   -2.2459   -0.9336 H   0  0  0  0  0  0  0  0  0  0  0  0
   -0.8012   -2.2479    0.7743 H   0  0  0  0  0  0  0  0  0  0  0  0
   -2.9221   -2.2741    1.6437 H   0  0  0  0  0  0  0  0  0  0  0  0
   -3.0738   -3.2926    0.2177 H   0  0  0  0  0  0  0  0  0  0  0  0
   -5.0077   -1.7914    0.0232 H   0  0  0  0  0  0  0  0  0  0  0  0
   -4.6114    0.5304   -0.5780 H   0  0  0  0  0  0  0  0  0  0  0  0
    1.0979    3.5734    0.2077 H   0  0  0  0  0  0  0  0  0  0  0  0
   -1.2743    3.4966   -0.0408 H   0  0  0  0  0  0  0  0  0  0  0  0
    3.2630    2.5060    0.3295 H   0  0  0  0  0  0  0  0  0  0  0  0
    0.8187   -2.4028   -0.4844 H   0  0  0  0  0  0  0  0  0  0  0  0
    4.6642    0.5771    0.2602 H   0  0  0  0  0  0  0  0  0  0  0  0
    3.0367   -3.3050   -0.4108 H   0  0  0  0  0  0  0  0  0  0  0  0
    4.9946   -1.8349   -0.0280 H   0  0  0  0  0  0  0  0  0  0  0  0
  1  7  2  0  0  0  0
  1 13  1  0  0  0  0
  2  3  2  0  0  0  0
  2  4  1  0  0  0  0
  2  7  1  0  0  0  0
  3  5  1  0  0  0  0
  3  8  1  0  0  0  0
  4  6  1  0  0  0  0
  4 19  1  0  0  0  0
  4 20  1  0  0  0  0
  5  9  1  0  0  0  0
  5 15  2  0  0  0  0
  6 10  1  0  0  0  0
  6 21  1  0  0  0  0
  6 22  1  0  0  0  0
  7 11  1  0  0  0  0
  8 12  1  0  0  0  0
  8 13  2  0  0  0  0
  9 14  1  0  0  0  0
  9 16  2  0  0  0  0
 10 11  2  0  0  0  0
 10 23  1  0  0  0  0
 11 24  1  0  0  0  0
 12 14  2  0  0  0  0
 12 25  1  0  0  0  0
 13 26  1  0  0  0  0
 14 27  1  0  0  0  0
 15 17  1  0  0  0  0
 15 28  1  0  0  0  0
 16 18  1  0  0  0  0
 16 29  1  0  0  0  0
 17 18  2  0  0  0  0
 17 30  1  0  0  0  0
 18 31  1  0  0  0  0
M  END
> <PUBCHEM_COMPOUND_CID>
66680144

> <PUBCHEM_CONFORMER_RMSD>
0.6

> <PUBCHEM_CONFORMER_DIVERSEORDER>
1

> <PUBCHEM_MMFF94_PARTIAL_CHARGES>
23
1 -0.62
10 -0.29
11 -0.18
12 -0.15
13 0.16
14 -0.15
15 -0.15
16 -0.15
17 -0.15
18 -0.15
2 -0.14
23 0.15
24 0.15
25 0.15
26 0.15
27 0.15
28 0.15
29 0.15
30 0.15
31 0.15
4 0.14
6 0.14
7 0.34

> <PUBCHEM_EFFECTIVE_ROTOR_COUNT>
0.4

> <PUBCHEM_PHARMACOPHORE_FEATURES>
5
1 1 acceptor
6 1 2 3 7 8 13 rings
6 2 4 6 7 10 11 rings
6 3 5 8 9 12 14 rings
6 5 9 15 16 17 18 rings

> <PUBCHEM_HEAVY_ATOM_COUNT>
18

> <PUBCHEM_ATOM_DEF_STEREO_COUNT>
0

> <PUBCHEM_ATOM_UDEF_STEREO_COUNT>
0

> <PUBCHEM_BOND_DEF_STEREO_COUNT>
0

> <PUBCHEM_BOND_UDEF_STEREO_COUNT>
0

> <PUBCHEM_ISOTOPIC_ATOM_COUNT>
0

> <PUBCHEM_COMPONENT_COUNT>
1

> <PUBCHEM_CACTVS_TAUTO_COUNT>
1

> <PUBCHEM_CONFORMER_ID>
03F9755000000001

> <PUBCHEM_MMFF94_ENERGY>
64.3128

> <PUBCHEM_FEATURE_SELFOVERLAP>
25.447

> <PUBCHEM_SHAPE_FINGERPRINT>
10608611 8 18410569595737241565
10616163 171 18411704304711776646
10618630 7 18409730672660092455
10967382 1 18194964273276572686
1100329 8 17039787262726863403
11578080 2 17097184217917709788
11680986 33 18411132571602982417
116883 192 18411420583387905933
12032990 46 18410857659156724598
12506688 2 18342178894505472360
12553582 1 18411146826451627814
13140716 1 18411703205126049233
13583140 156 14189292604334380247
138480 1 14880034022290515464
14115302 16 18041007236445935935
14178342 30 18339068282117306864
14223421 5 18410852191684598728
14251705 54 18338238270580273250
14790565 3 17616824669950809581
14866123 147 17477490798213170467
15196674 1 18410855455833201005
15375462 6 18338517555097165828
15442244 35 18412266103619100945
15536298 74 18342457088095468240
16945 1 18410857672073612788
17357779 13 18336530682099307909
17804303 29 18411423886207103157
19591789 44 17184478057740029148
200 152 17988634221066471543
20510252 161 18270679740726462537
20645477 70 18264198291822390407
21029758 11 18341604885364860405
21267235 1 18411146830762718214
21501502 16 18411144627423318372
221490 88 18336552715160515370
22721475 48 18411422803833178901
23184049 29 18337671919144700166
2334 1 17834675272326450006
23402539 116 18340757135686832511
23463225 33 18410856598320914564
23557571 272 18128825149137556278
23559900 14 18410848876302337520
2748010 2 18122340443693498172
2871803 45 18335697247621532511
335352 9 18338516322842569717
5104073 3 18341046320588613634
54173680 148 18267023847547677168
7364860 26 18341330118931867840
8809292 202 18334579048649035019
9709674 26 18340770347117375014

> <PUBCHEM_SHAPE_MULTIPOLES>
365.45
6.87
2.98
0.65
0.57
0.53
-0.01
-3.38
-0.05
-0.16
-0.09
0.03
-0.05
0.51

> <PUBCHEM_SHAPE_SELFOVERLAP>
828.923

> <PUBCHEM_SHAPE_VOLUME>
186.3

> <PUBCHEM_COORDINATE_TYPE>
2
5
10

$$$$
