92852201
  -OEChem-09302001583D

 23 22  0     1  0  0  0  0  0999 V2000
   -0.0915   -1.6361    0.7022 O   0  0  0  0  0  0  0  0  0  0  0  0
    1.2943    0.8542    0.7490 O   0  0  0  0  0  0  0  0  0  0  0  0
   -1.6698    1.1480   -1.0750 O   0  0  0  0  0  0  0  0  0  0  0  0
   -3.8271    0.2197    0.4343 O   0  0  0  0  0  0  0  0  0  0  0  0
    3.2284   -0.8608    0.0443 O   0  0  0  0  0  0  0  0  0  0  0  0
   -0.2303   -0.6548   -0.3264 C   0  0  1  0  0  0  0  0  0  0  0  0
   -1.4670    0.2051   -0.0231 C   0  0  2  0  0  0  0  0  0  0  0  0
    1.0754    0.1413   -0.4600 C   0  0  2  0  0  0  0  0  0  0  0  0
   -2.7340   -0.6391    0.1245 C   0  0  0  0  0  0  0  0  0  0  0  0
    2.2735   -0.7502   -0.7185 C   0  0  0  0  0  0  0  0  0  0  0  0
    2.1481    1.9729    0.5487 C   0  0  0  0  0  0  0  0  0  0  0  0
   -0.3989   -1.1955   -1.2670 H   0  0  0  0  0  0  0  0  0  0  0  0
   -1.3191    0.7746    0.9023 H   0  0  0  0  0  0  0  0  0  0  0  0
    0.9883    0.8363   -1.3045 H   0  0  0  0  0  0  0  0  0  0  0  0
   -2.6392   -1.3754    0.9279 H   0  0  0  0  0  0  0  0  0  0  0  0
   -2.9710   -1.1514   -0.8138 H   0  0  0  0  0  0  0  0  0  0  0  0
    2.2447   -1.3132   -1.6674 H   0  0  0  0  0  0  0  0  0  0  0  0
    0.5758   -2.2808    0.4127 H   0  0  0  0  0  0  0  0  0  0  0  0
   -2.4618    1.6668   -0.8531 H   0  0  0  0  0  0  0  0  0  0  0  0
    2.3046    2.4565    1.5170 H   0  0  0  0  0  0  0  0  0  0  0  0
    1.6736    2.6977   -0.1206 H   0  0  0  0  0  0  0  0  0  0  0  0
    3.1239    1.6814    0.1510 H   0  0  0  0  0  0  0  0  0  0  0  0
   -4.6166   -0.3423    0.5150 H   0  0  0  0  0  0  0  0  0  0  0  0
  1  6  1  0  0  0  0
  1 18  1  0  0  0  0
  2  8  1  0  0  0  0
  2 11  1  0  0  0  0
  3  7  1  0  0  0  0
  3 19  1  0  0  0  0
  4  9  1  0  0  0  0
  4 23  1  0  0  0  0
  5 10  2  0  0  0  0
  6  7  1  0  0  0  0
  6  8  1  0  0  0  0
  6 12  1  0  0  0  0
  7  9  1  0  0  0  0
  7 13  1  0  0  0  0
  8 10  1  0  0  0  0
  8 14  1  0  0  0  0
  9 15  1  0  0  0  0
  9 16  1  0  0  0  0
 10 17  1  0  0  0  0
 11 20  1  0  0  0  0
 11 21  1  0  0  0  0
 11 22  1  0  0  0  0
M  END
> <PUBCHEM_COMPOUND_CID>
92852201

> <PUBCHEM_CONFORMER_RMSD>
0.6

> <PUBCHEM_CONFORMER_DIVERSEORDER>
1
50
53
64
102
24
45
76
68
73
49
86
20
94
7
75
87
34
12
90
32
99
43
74
22
56
54
11
57
46
40
97
17
88
27
101
18
69
96
25
52
77
13
93
95
80
91
58
29
4
47
41
30
79
62
59
65
42
14
61
92
66
35
67
19
23
83
84
21
28
51
31
2
81
55
37
63
105
3
72
78
44
98
39
6
36
82
16
8
33
38
106
26
104
15
85
9
100
103
71
60
89
10
48
5
70

> <PUBCHEM_MMFF94_PARTIAL_CHARGES>
15
1 -0.68
10 0.45
11 0.28
17 0.06
18 0.4
19 0.4
2 -0.56
23 0.4
3 -0.68
4 -0.68
5 -0.57
6 0.28
7 0.28
8 0.34
9 0.28

> <PUBCHEM_EFFECTIVE_ROTOR_COUNT>
5

> <PUBCHEM_PHARMACOPHORE_FEATURES>
8
1 1 acceptor
1 1 donor
1 2 acceptor
1 3 acceptor
1 3 donor
1 4 acceptor
1 4 donor
1 5 acceptor

> <PUBCHEM_HEAVY_ATOM_COUNT>
11

> <PUBCHEM_ATOM_DEF_STEREO_COUNT>
3

> <PUBCHEM_ATOM_UDEF_STEREO_COUNT>
0

> <PUBCHEM_BOND_DEF_STEREO_COUNT>
0

> <PUBCHEM_BOND_UDEF_STEREO_COUNT>
0

> <PUBCHEM_ISOTOPIC_ATOM_COUNT>
0

> <PUBCHEM_COMPONENT_COUNT>
1

> <PUBCHEM_CACTVS_TAUTO_COUNT>
1

> <PUBCHEM_CONFORMER_ID>
0588CFE900000001

> <PUBCHEM_MMFF94_ENERGY>
23.3834

> <PUBCHEM_FEATURE_SELFOVERLAP>
40.617

> <PUBCHEM_SHAPE_FINGERPRINT>
10857977 72 17822295733971441993
11062470 55 12391507559969688007
12932764 1 18259977167756607743
13380535 21 18195254536046456382
14325111 11 18341896341750381075
16945 1 18271803484512275654
18342897 14 18342742879672579928
19973954 147 18341892999955023641
20201158 50 18343025471267233350
21501502 16 18198617937784205534
29004967 10 17774725264400716022
3248919 1 16630538340394580031
5084963 1 18260554411128912765
9939556 21 17703787046098166231

> <PUBCHEM_SHAPE_MULTIPOLES>
197.03
4.93
1.54
0.86
2.32
0.42
0.09
0.16
-0.41
-1
-0.21
0.01
0.06
0.49

> <PUBCHEM_SHAPE_SELFOVERLAP>
370.139

> <PUBCHEM_SHAPE_VOLUME>
122.4

> <PUBCHEM_COORDINATE_TYPE>
2
5
10

$$$$
