10256668
  -OEChem-09292010443D

 96 97  0     0  0  0  0  0  0999 V2000
   10.2473    2.7451    0.8318 C   0  0  0  0  0  0  0  0  0  0  0  0
  -11.0140    1.6831    0.7875 C   0  0  0  0  0  0  0  0  0  0  0  0
   10.2590    4.2901    0.9926 C   0  0  0  0  0  0  0  0  0  0  0  0
  -11.8697    2.9475    0.5013 C   0  0  0  0  0  0  0  0  0  0  0  0
   10.0097    5.0065   -0.3224 C   0  0  0  0  0  0  0  0  0  0  0  0
  -11.0192    4.1972    0.3611 C   0  0  0  0  0  0  0  0  0  0  0  0
    9.0679    2.2738   -0.0511 C   0  0  0  0  0  0  0  0  0  0  0  0
   -9.7638    1.6242   -0.1215 C   0  0  0  0  0  0  0  0  0  0  0  0
    8.6489    4.6162   -0.8790 C   0  0  0  0  0  0  0  0  0  0  0  0
  -10.0426    4.0361   -0.7941 C   0  0  0  0  0  0  0  0  0  0  0  0
    8.3354    3.1355   -0.8008 C   0  0  0  0  0  0  0  0  0  0  0  0
   -9.3499    2.6895   -0.8528 C   0  0  0  0  0  0  0  0  0  0  0  0
   10.1681    2.1679    2.2664 C   0  0  0  0  0  0  0  0  0  0  0  0
   11.5824    2.2959    0.1946 C   0  0  0  0  0  0  0  0  0  0  0  0
  -11.9539    0.4730    0.5646 C   0  0  0  0  0  0  0  0  0  0  0  0
  -10.5756    1.6978    2.2700 C   0  0  0  0  0  0  0  0  0  0  0  0
    8.8108    0.8431   -0.0444 C   0  0  0  0  0  0  0  0  0  0  0  0
   -9.0465    0.3599   -0.1219 C   0  0  0  0  0  0  0  0  0  0  0  0
    7.1373    2.7715   -1.6471 C   0  0  0  0  0  0  0  0  0  0  0  0
   -8.1763    2.7048   -1.8051 C   0  0  0  0  0  0  0  0  0  0  0  0
    7.5742    0.3206   -0.0513 C   0  0  0  0  0  0  0  0  0  0  0  0
   -7.7063    0.2753   -0.1134 C   0  0  0  0  0  0  0  0  0  0  0  0
    7.2337   -1.1022   -0.0393 C   0  0  0  0  0  0  0  0  0  0  0  0
   -6.9171   -0.9567   -0.1096 C   0  0  0  0  0  0  0  0  0  0  0  0
    8.3702   -2.0947    0.0193 C   0  0  0  0  0  0  0  0  0  0  0  0
   -7.6720   -2.2662   -0.1072 C   0  0  0  0  0  0  0  0  0  0  0  0
    5.9657   -1.5665   -0.0472 C   0  0  0  0  0  0  0  0  0  0  0  0
   -5.5668   -0.9923   -0.1011 C   0  0  0  0  0  0  0  0  0  0  0  0
    5.5028   -2.9401   -0.0368 C   0  0  0  0  0  0  0  0  0  0  0  0
   -4.6932   -2.1519   -0.0967 C   0  0  0  0  0  0  0  0  0  0  0  0
    4.2085   -3.3003   -0.0461 C   0  0  0  0  0  0  0  0  0  0  0  0
   -3.3530   -2.0459   -0.0881 C   0  0  0  0  0  0  0  0  0  0  0  0
    3.6756   -4.6664   -0.0543 C   0  0  0  0  0  0  0  0  0  0  0  0
   -2.3944   -3.1515   -0.0862 C   0  0  0  0  0  0  0  0  0  0  0  0
    4.6733   -5.7968   -0.0299 C   0  0  0  0  0  0  0  0  0  0  0  0
   -2.9419   -4.5579   -0.0611 C   0  0  0  0  0  0  0  0  0  0  0  0
    2.3345   -4.8250   -0.0632 C   0  0  0  0  0  0  0  0  0  0  0  0
   -1.0560   -2.9732   -0.0773 C   0  0  0  0  0  0  0  0  0  0  0  0
    1.3187   -3.7893   -0.0657 C   0  0  0  0  0  0  0  0  0  0  0  0
   -0.0120   -3.9776   -0.0745 C   0  0  0  0  0  0  0  0  0  0  0  0
    9.4842    4.5989    1.7084 H   0  0  0  0  0  0  0  0  0  0  0  0
   11.2148    4.6252    1.4148 H   0  0  0  0  0  0  0  0  0  0  0  0
  -12.4425    2.8104   -0.4267 H   0  0  0  0  0  0  0  0  0  0  0  0
  -12.6095    3.0986    1.2976 H   0  0  0  0  0  0  0  0  0  0  0  0
   10.7966    4.7647   -1.0462 H   0  0  0  0  0  0  0  0  0  0  0  0
   10.0470    6.0915   -0.1716 H   0  0  0  0  0  0  0  0  0  0  0  0
  -10.4737    4.3978    1.2904 H   0  0  0  0  0  0  0  0  0  0  0  0
  -11.6594    5.0686    0.1813 H   0  0  0  0  0  0  0  0  0  0  0  0
    7.8650    5.1596   -0.3358 H   0  0  0  0  0  0  0  0  0  0  0  0
    8.6082    4.9567   -1.9209 H   0  0  0  0  0  0  0  0  0  0  0  0
  -10.5770    4.1879   -1.7409 H   0  0  0  0  0  0  0  0  0  0  0  0
   -9.2935    4.8343   -0.7198 H   0  0  0  0  0  0  0  0  0  0  0  0
   10.2801    1.0779    2.2768 H   0  0  0  0  0  0  0  0  0  0  0  0
    9.2081    2.4083    2.7380 H   0  0  0  0  0  0  0  0  0  0  0  0
   10.9638    2.5776    2.8997 H   0  0  0  0  0  0  0  0  0  0  0  0
   11.6606    2.6114   -0.8515 H   0  0  0  0  0  0  0  0  0  0  0  0
   11.7015    1.2072    0.2175 H   0  0  0  0  0  0  0  0  0  0  0  0
   12.4380    2.7188    0.7340 H   0  0  0  0  0  0  0  0  0  0  0  0
  -11.5277   -0.4612    0.9459 H   0  0  0  0  0  0  0  0  0  0  0  0
  -12.1819    0.3356   -0.4988 H   0  0  0  0  0  0  0  0  0  0  0  0
  -12.9053    0.6155    1.0914 H   0  0  0  0  0  0  0  0  0  0  0  0
   -9.8792    2.5164    2.4816 H   0  0  0  0  0  0  0  0  0  0  0  0
  -10.0732    0.7641    2.5488 H   0  0  0  0  0  0  0  0  0  0  0  0
  -11.4383    1.8118    2.9365 H   0  0  0  0  0  0  0  0  0  0  0  0
    9.6842    0.1999   -0.0630 H   0  0  0  0  0  0  0  0  0  0  0  0
   -9.6487   -0.5396   -0.1712 H   0  0  0  0  0  0  0  0  0  0  0  0
    7.2058    1.7777   -2.0962 H   0  0  0  0  0  0  0  0  0  0  0  0
    7.0545    3.4504   -2.5046 H   0  0  0  0  0  0  0  0  0  0  0  0
    6.2117    2.8720   -1.0721 H   0  0  0  0  0  0  0  0  0  0  0  0
   -7.9443    1.7251   -2.2301 H   0  0  0  0  0  0  0  0  0  0  0  0
   -7.2891    3.1218   -1.3184 H   0  0  0  0  0  0  0  0  0  0  0  0
   -8.4065    3.3395   -2.6695 H   0  0  0  0  0  0  0  0  0  0  0  0
    6.7042    0.9671    0.0250 H   0  0  0  0  0  0  0  0  0  0  0  0
   -7.1034    1.1769   -0.0313 H   0  0  0  0  0  0  0  0  0  0  0  0
    9.0153   -1.8762    0.8791 H   0  0  0  0  0  0  0  0  0  0  0  0
    8.0971   -3.1437    0.1253 H   0  0  0  0  0  0  0  0  0  0  0  0
    8.9767   -2.0216   -0.8910 H   0  0  0  0  0  0  0  0  0  0  0  0
   -8.3472   -2.3073    0.7562 H   0  0  0  0  0  0  0  0  0  0  0  0
   -8.2753   -2.3511   -1.0189 H   0  0  0  0  0  0  0  0  0  0  0  0
   -7.0761   -3.1759   -0.0529 H   0  0  0  0  0  0  0  0  0  0  0  0
    5.1650   -0.8260   -0.0734 H   0  0  0  0  0  0  0  0  0  0  0  0
   -5.0442   -0.0348   -0.0993 H   0  0  0  0  0  0  0  0  0  0  0  0
    6.2471   -3.7249   -0.0380 H   0  0  0  0  0  0  0  0  0  0  0  0
   -5.1358   -3.1378   -0.1091 H   0  0  0  0  0  0  0  0  0  0  0  0
    3.5148   -2.4684   -0.0536 H   0  0  0  0  0  0  0  0  0  0  0  0
   -2.9065   -1.0520   -0.0824 H   0  0  0  0  0  0  0  0  0  0  0  0
    5.2953   -5.7532    0.8705 H   0  0  0  0  0  0  0  0  0  0  0  0
    4.1671   -6.7686   -0.0260 H   0  0  0  0  0  0  0  0  0  0  0  0
    5.3167   -5.7716   -0.9157 H   0  0  0  0  0  0  0  0  0  0  0  0
   -2.2172   -5.3671    0.0131 H   0  0  0  0  0  0  0  0  0  0  0  0
   -3.5220   -4.7485   -0.9718 H   0  0  0  0  0  0  0  0  0  0  0  0
   -3.6072   -4.6854    0.8016 H   0  0  0  0  0  0  0  0  0  0  0  0
    1.9492   -5.8441   -0.0632 H   0  0  0  0  0  0  0  0  0  0  0  0
   -0.6820   -1.9489   -0.0801 H   0  0  0  0  0  0  0  0  0  0  0  0
    1.6267   -2.7505   -0.0561 H   0  0  0  0  0  0  0  0  0  0  0  0
   -0.3231   -5.0166   -0.0891 H   0  0  0  0  0  0  0  0  0  0  0  0
  1  3  1  0  0  0  0
  1  7  1  0  0  0  0
  1 13  1  0  0  0  0
  1 14  1  0  0  0  0
  2  4  1  0  0  0  0
  2  8  1  0  0  0  0
  2 15  1  0  0  0  0
  2 16  1  0  0  0  0
  3  5  1  0  0  0  0
  3 41  1  0  0  0  0
  3 42  1  0  0  0  0
  4  6  1  0  0  0  0
  4 43  1  0  0  0  0
  4 44  1  0  0  0  0
  5  9  1  0  0  0  0
  5 45  1  0  0  0  0
  5 46  1  0  0  0  0
  6 10  1  0  0  0  0
  6 47  1  0  0  0  0
  6 48  1  0  0  0  0
  7 11  2  0  0  0  0
  7 17  1  0  0  0  0
  8 12  2  0  0  0  0
  8 18  1  0  0  0  0
  9 11  1  0  0  0  0
  9 49  1  0  0  0  0
  9 50  1  0  0  0  0
 10 12  1  0  0  0  0
 10 51  1  0  0  0  0
 10 52  1  0  0  0  0
 11 19  1  0  0  0  0
 12 20  1  0  0  0  0
 13 53  1  0  0  0  0
 13 54  1  0  0  0  0
 13 55  1  0  0  0  0
 14 56  1  0  0  0  0
 14 57  1  0  0  0  0
 14 58  1  0  0  0  0
 15 59  1  0  0  0  0
 15 60  1  0  0  0  0
 15 61  1  0  0  0  0
 16 62  1  0  0  0  0
 16 63  1  0  0  0  0
 16 64  1  0  0  0  0
 17 21  2  0  0  0  0
 17 65  1  0  0  0  0
 18 22  2  0  0  0  0
 18 66  1  0  0  0  0
 19 67  1  0  0  0  0
 19 68  1  0  0  0  0
 19 69  1  0  0  0  0
 20 70  1  0  0  0  0
 20 71  1  0  0  0  0
 20 72  1  0  0  0  0
 21 23  1  0  0  0  0
 21 73  1  0  0  0  0
 22 24  1  0  0  0  0
 22 74  1  0  0  0  0
 23 25  1  0  0  0  0
 23 27  2  0  0  0  0
 24 26  1  0  0  0  0
 24 28  2  0  0  0  0
 25 75  1  0  0  0  0
 25 76  1  0  0  0  0
 25 77  1  0  0  0  0
 26 78  1  0  0  0  0
 26 79  1  0  0  0  0
 26 80  1  0  0  0  0
 27 29  1  0  0  0  0
 27 81  1  0  0  0  0
 28 30  1  0  0  0  0
 28 82  1  0  0  0  0
 29 31  2  0  0  0  0
 29 83  1  0  0  0  0
 30 32  2  0  0  0  0
 30 84  1  0  0  0  0
 31 33  1  0  0  0  0
 31 85  1  0  0  0  0
 32 34  1  0  0  0  0
 32 86  1  0  0  0  0
 33 35  1  0  0  0  0
 33 37  2  0  0  0  0
 34 36  1  0  0  0  0
 34 38  2  0  0  0  0
 35 87  1  0  0  0  0
 35 88  1  0  0  0  0
 35 89  1  0  0  0  0
 36 90  1  0  0  0  0
 36 91  1  0  0  0  0
 36 92  1  0  0  0  0
 37 39  1  0  0  0  0
 37 93  1  0  0  0  0
 38 40  1  0  0  0  0
 38 94  1  0  0  0  0
 39 40  2  0  0  0  0
 39 95  1  0  0  0  0
 40 96  1  0  0  0  0
M  END
> <PUBCHEM_COMPOUND_CID>
10256668

> <PUBCHEM_CONFORMER_RMSD>
1.2

> <PUBCHEM_CONFORMER_DIVERSEORDER>
1
89
38
21
30
93
63
109
96
113
158
74
47
101
135
73
22
2
150
114
107
23
54
46
43
16
117
58
85
103
156
44
64
19
151
15
28
91
4
130
136
118
123
106
57
132
59
155
148
3
41
94
68
126
65
88
133
53
12
138
8
49
119
5
139
50
105
120
145
7
100
67
34
159
110
40
80
92
20
142
45
37
125
87
129
9
24
104
55
35
90
154
11
76
111
29
25
98
14
115
122
84
52
121
72
81
147
71
36
95
97
18
42
146
102
127
140
10
137
70
128
79
60
157
152
112
48
17
153
134
33
69
62
82
6
131
78
26
77
144
141
13
108
39
51
75
66
143
116
56
61
99
149
86
32
27
31
124
83

> <PUBCHEM_MMFF94_PARTIAL_CHARGES>
46
1 0.14
10 0.14
11 -0.28
12 -0.28
17 -0.15
18 -0.15
19 0.14
2 0.14
20 0.14
21 -0.15
22 -0.15
23 -0.14
24 -0.14
25 0.14
26 0.14
27 -0.15
28 -0.15
29 -0.15
30 -0.15
31 -0.15
32 -0.15
33 -0.14
34 -0.14
35 0.14
36 0.14
37 -0.15
38 -0.15
39 -0.15
40 -0.15
65 0.15
66 0.15
7 -0.14
73 0.15
74 0.15
8 -0.14
81 0.15
82 0.15
83 0.15
84 0.15
85 0.15
86 0.15
9 0.14
93 0.15
94 0.15
95 0.15
96 0.15

> <PUBCHEM_EFFECTIVE_ROTOR_COUNT>
11.6

> <PUBCHEM_PHARMACOPHORE_FEATURES>
8
1 25 hydrophobe
1 26 hydrophobe
1 35 hydrophobe
1 36 hydrophobe
3 1 13 14 hydrophobe
3 2 15 16 hydrophobe
6 1 3 5 7 9 11 rings
6 2 4 6 8 10 12 rings

> <PUBCHEM_HEAVY_ATOM_COUNT>
40

> <PUBCHEM_ATOM_DEF_STEREO_COUNT>
0

> <PUBCHEM_ATOM_UDEF_STEREO_COUNT>
0

> <PUBCHEM_BOND_DEF_STEREO_COUNT>
9

> <PUBCHEM_BOND_UDEF_STEREO_COUNT>
0

> <PUBCHEM_ISOTOPIC_ATOM_COUNT>
0

> <PUBCHEM_COMPONENT_COUNT>
1

> <PUBCHEM_CACTVS_TAUTO_COUNT>
1

> <PUBCHEM_CONFORMER_ID>
009C811C00000001

> <PUBCHEM_MMFF94_ENERGY>
110.5848

> <PUBCHEM_FEATURE_SELFOVERLAP>
40.601

> <PUBCHEM_SHAPE_FINGERPRINT>
10533779 1 18272366508429590426
10952577 141 18343863329509316343
11421887 21 18201728336600620706
11578821 258 18410292523487176991
13530399 1 18411981360325395179
14201967 126 18411136935110153708
14617042 71 18410858729142288207
15145344 44 18411697712026609423
15538507 64 18339354262936548184
15604295 49 18336827495132440367
18354007 30 18334296513190631195
20501277 180 18342179942440653711
21057603 308 17989489627927449304
21362267 2 18261664862892895695
3918712 181 18339923814334279114
45270241 37 18270683043779184647
59518389 141 17685771324550451797
6204607 403 18271528598943708153

> <PUBCHEM_SHAPE_MULTIPOLES>
823.18
63.75
9.7
1.17
51.92
3.93
0.33
-104.69
10.5
-15.08
-0.89
0.19
-1.38
0.43

> <PUBCHEM_SHAPE_SELFOVERLAP>
1665.966

> <PUBCHEM_SHAPE_VOLUME>
477.6

> <PUBCHEM_COORDINATE_TYPE>
2
5
10

$$$$
