5320863
  -OEChem-09292015003D

 49 52  0     1  0  0  0  0  0999 V2000
    1.0724    2.5813   -1.1642 O   0  0  0  0  0  0  0  0  0  0  0  0
    0.7951    0.9411    0.5247 O   0  0  0  0  0  0  0  0  0  0  0  0
    4.9903    2.2558    0.1052 O   0  0  0  0  0  0  0  0  0  0  0  0
    3.3189   -0.1024   -0.0651 O   0  0  0  0  0  0  0  0  0  0  0  0
    3.3972    4.6511    0.7598 O   0  0  0  0  0  0  0  0  0  0  0  0
   -1.8677   -1.5674    0.0723 O   0  0  0  0  0  0  0  0  0  0  0  0
   -1.5200    2.4784    0.4120 O   0  0  0  0  0  0  0  0  0  0  0  0
   -4.1113    2.7274    0.1664 O   0  0  0  0  0  0  0  0  0  0  0  0
   -6.5824   -1.2871   -0.4007 O   0  0  0  0  0  0  0  0  0  0  0  0
    2.8003   -3.5619   -2.0014 O   0  0  0  0  0  0  0  0  0  0  0  0
    3.6181   -4.6392    0.4268 O   0  0  0  0  0  0  0  0  0  0  0  0
    3.5711    2.2857    0.2669 C   0  0  2  0  0  0  0  0  0  0  0  0
    2.9734    1.1727   -0.5948 C   0  0  2  0  0  0  0  0  0  0  0  0
    3.0376    3.6467   -0.1826 C   0  0  1  0  0  0  0  0  0  0  0  0
    1.4504    1.2841   -0.6953 C   0  0  2  0  0  0  0  0  0  0  0  0
    1.5188    3.6300   -0.3077 C   0  0  0  0  0  0  0  0  0  0  0  0
   -0.4483    0.3669    0.3724 C   0  0  0  0  0  0  0  0  0  0  0  0
   -0.6357   -0.9607    0.2594 C   0  0  0  0  0  0  0  0  0  0  0  0
   -1.6280    1.2633    0.3135 C   0  0  0  0  0  0  0  0  0  0  0  0
   -2.9341    0.6124    0.1284 C   0  0  0  0  0  0  0  0  0  0  0  0
   -2.9852   -0.7753    0.0168 C   0  0  0  0  0  0  0  0  0  0  0  0
    0.4791   -1.9238    0.2995 C   0  0  0  0  0  0  0  0  0  0  0  0
   -4.1066    1.3692    0.0633 C   0  0  0  0  0  0  0  0  0  0  0  0
   -4.2114   -1.4163   -0.1616 C   0  0  0  0  0  0  0  0  0  0  0  0
    1.1238   -2.2953   -0.8806 C   0  0  0  0  0  0  0  0  0  0  0  0
    0.8898   -2.4652    1.5180 C   0  0  0  0  0  0  0  0  0  0  0  0
   -5.3320    0.7259   -0.1147 C   0  0  0  0  0  0  0  0  0  0  0  0
   -5.3845   -0.6641   -0.2270 C   0  0  0  0  0  0  0  0  0  0  0  0
    2.1784   -3.2076   -0.8424 C   0  0  0  0  0  0  0  0  0  0  0  0
    1.9442   -3.3774    1.5564 C   0  0  0  0  0  0  0  0  0  0  0  0
    2.5886   -3.7485    0.3763 C   0  0  0  0  0  0  0  0  0  0  0  0
    3.3708    2.1086    1.3303 H   0  0  0  0  0  0  0  0  0  0  0  0
    3.4046    1.2366   -1.6024 H   0  0  0  0  0  0  0  0  0  0  0  0
    3.4936    3.9127   -1.1442 H   0  0  0  0  0  0  0  0  0  0  0  0
    1.1368    0.5797   -1.4759 H   0  0  0  0  0  0  0  0  0  0  0  0
    1.0411    3.5431    0.6760 H   0  0  0  0  0  0  0  0  0  0  0  0
    1.1691    4.5792   -0.7290 H   0  0  0  0  0  0  0  0  0  0  0  0
    5.3566    2.9899    0.6275 H   0  0  0  0  0  0  0  0  0  0  0  0
    4.2884   -0.1378    0.0013 H   0  0  0  0  0  0  0  0  0  0  0  0
    3.0594    5.5005    0.4280 H   0  0  0  0  0  0  0  0  0  0  0  0
   -4.2476   -2.4994   -0.2488 H   0  0  0  0  0  0  0  0  0  0  0  0
    0.8078   -1.8829   -1.8364 H   0  0  0  0  0  0  0  0  0  0  0  0
    0.3970   -2.1856    2.4460 H   0  0  0  0  0  0  0  0  0  0  0  0
   -6.2493    1.3075   -0.1665 H   0  0  0  0  0  0  0  0  0  0  0  0
    2.2538   -3.7909    2.5126 H   0  0  0  0  0  0  0  0  0  0  0  0
   -3.2101    3.0627    0.2896 H   0  0  0  0  0  0  0  0  0  0  0  0
   -6.4335   -2.2466   -0.4588 H   0  0  0  0  0  0  0  0  0  0  0  0
    3.5043   -4.1989   -1.7884 H   0  0  0  0  0  0  0  0  0  0  0  0
    3.7616   -4.9052    1.3513 H   0  0  0  0  0  0  0  0  0  0  0  0
  1 15  1  0  0  0  0
  1 16  1  0  0  0  0
  2 15  1  0  0  0  0
  2 17  1  0  0  0  0
  3 12  1  0  0  0  0
  3 38  1  0  0  0  0
  4 13  1  0  0  0  0
  4 39  1  0  0  0  0
  5 14  1  0  0  0  0
  5 40  1  0  0  0  0
  6 18  1  0  0  0  0
  6 21  1  0  0  0  0
  7 19  2  0  0  0  0
  8 23  1  0  0  0  0
  8 46  1  0  0  0  0
  9 28  1  0  0  0  0
  9 47  1  0  0  0  0
 10 29  1  0  0  0  0
 10 48  1  0  0  0  0
 11 31  1  0  0  0  0
 11 49  1  0  0  0  0
 12 13  1  0  0  0  0
 12 14  1  0  0  0  0
 12 32  1  0  0  0  0
 13 15  1  0  0  0  0
 13 33  1  0  0  0  0
 14 16  1  0  0  0  0
 14 34  1  0  0  0  0
 15 35  1  0  0  0  0
 16 36  1  0  0  0  0
 16 37  1  0  0  0  0
 17 18  2  0  0  0  0
 17 19  1  0  0  0  0
 18 22  1  0  0  0  0
 19 20  1  0  0  0  0
 20 21  1  0  0  0  0
 20 23  2  0  0  0  0
 21 24  2  0  0  0  0
 22 25  2  0  0  0  0
 22 26  1  0  0  0  0
 23 27  1  0  0  0  0
 24 28  1  0  0  0  0
 24 41  1  0  0  0  0
 25 29  1  0  0  0  0
 25 42  1  0  0  0  0
 26 30  2  0  0  0  0
 26 43  1  0  0  0  0
 27 28  2  0  0  0  0
 27 44  1  0  0  0  0
 29 31  2  0  0  0  0
 30 31  1  0  0  0  0
 30 45  1  0  0  0  0
M  END
> <PUBCHEM_COMPOUND_CID>
5320863

> <PUBCHEM_CONFORMER_RMSD>
0.8

> <PUBCHEM_CONFORMER_DIVERSEORDER>
1
72
82
93
21
90
34
86
89
87
31
94
97
54
74
83
6
46
36
59
70
42
91
95
32
85
47
96
73
27
9
92
60
38
75
81
4
24
88
39
19
57
18
44
76
43
50
79
17
28
20
84
26
40
35
12
71
16
80
66
52
45
56
48
77
14
29
37
55
69
63
78
13
33
15
49
22
30
3
68
41
62
51
61
53
5
23
58
11
67
64
25
10
65
2
7
8

> <PUBCHEM_MMFF94_PARTIAL_CHARGES>
43
1 -0.56
10 -0.53
11 -0.53
12 0.28
13 0.28
14 0.28
15 0.56
16 0.28
17 0.09
18 0.05
19 0.47
2 -0.36
20 0.09
21 0.08
22 0.03
23 0.08
24 -0.15
25 -0.15
26 -0.15
27 -0.15
28 0.08
29 0.08
3 -0.68
30 -0.15
31 0.08
38 0.4
39 0.4
4 -0.68
40 0.4
41 0.15
42 0.15
43 0.15
44 0.15
45 0.15
46 0.45
47 0.45
48 0.45
49 0.45
5 -0.68
6 -0.16
7 -0.57
8 -0.53
9 -0.53

> <PUBCHEM_EFFECTIVE_ROTOR_COUNT>
4.2

> <PUBCHEM_PHARMACOPHORE_FEATURES>
18
1 1 acceptor
1 10 donor
1 11 donor
1 2 acceptor
1 3 acceptor
1 3 donor
1 4 acceptor
1 4 donor
1 5 acceptor
1 5 donor
1 6 acceptor
1 7 acceptor
1 8 donor
1 9 donor
6 1 12 13 14 15 16 rings
6 20 21 23 24 27 28 rings
6 22 25 26 29 30 31 rings
6 6 17 18 19 20 21 rings

> <PUBCHEM_HEAVY_ATOM_COUNT>
31

> <PUBCHEM_ATOM_DEF_STEREO_COUNT>
3

> <PUBCHEM_ATOM_UDEF_STEREO_COUNT>
1

> <PUBCHEM_BOND_DEF_STEREO_COUNT>
0

> <PUBCHEM_BOND_UDEF_STEREO_COUNT>
0

> <PUBCHEM_ISOTOPIC_ATOM_COUNT>
0

> <PUBCHEM_COMPONENT_COUNT>
1

> <PUBCHEM_CACTVS_TAUTO_COUNT>
162

> <PUBCHEM_CONFORMER_ID>
0051309F00000001

> <PUBCHEM_MMFF94_ENERGY>
98.7303

> <PUBCHEM_FEATURE_SELFOVERLAP>
91.441

> <PUBCHEM_SHAPE_FINGERPRINT>
10050765 1 18410292477007440393
10074138 170 17404557353354684056
10411042 1 18121497947214848818
10675989 125 18341619268968352529
1100329 8 17833833772675793793
11370993 70 18194401314855075292
11578080 2 17314497137380363279
11963148 33 18194673998799362687
12156800 1 15911892103099219302
12160290 23 17260781927066385830
12553582 1 17760654668034371979
13009979 54 17986394382689304811
13140716 1 18265618869029086952
133893 2 18268451077869835587
13540713 5 18272933796416089649
138480 1 18265614282304668954
140371 6 17696193608744170025
14790565 3 18194966477106992321
14844126 61 17256238771149130264
15775530 1 17824572800814583987
17492 89 18410292472290791811
1813 80 18125158225829283223
18681886 176 18268424633899716418
19319366 153 18197773504480378095
19591789 44 17689157129463674379
20028762 73 18269271425308465860
20197701 30 18193271021096130777
20567600 347 18263082265591641658
20600515 1 17697036933677429547
20691752 17 17459196187853297715
20905425 154 18195533593162424990
21033648 144 17824810377062170861
21033648 29 17982446302311334376
21133410 230 17392523091568200338
21133665 82 18337112397709486836
22149856 69 18120396469667919035
23366157 5 18260551099888631371
23559900 14 18266734693459832035
244849 19 17823158786364700259
25147074 1 18272931588739453057
3298306 158 18338524152441304150
3411729 13 18409164415550464554
352729 6 17974021839949817609
38695281 34 18270399528370254327
4017518 198 18128825312905437734
4280585 95 18049155566737993059
5265222 85 18120385512600159268
532947 4 18411145736025787446
5385378 56 18410580595449394753
59755656 215 18408325514021901103
6138700 20 18409735045791491518
6443956 14 18264493892962303484
6700243 42 17267804061637272782
67856867 119 18410005520924466379
79837 15 17974292319646973987
9709674 26 18335988597424453979
9981440 41 18119527880349348699

> <PUBCHEM_SHAPE_MULTIPOLES>
573.4
10.01
6.17
1.04
13.84
0.54
-0.07
-1.73
-0.79
-10.01
0.34
-0.76
0.8
-0.03

> <PUBCHEM_SHAPE_SELFOVERLAP>
1268.597

> <PUBCHEM_SHAPE_VOLUME>
303.9

> <PUBCHEM_COORDINATE_TYPE>
2
5
10

$$$$
