5491814
  -OEChem-09292011483D

 68 72  0     1  0  0  0  0  0999 V2000
    1.2011    2.0354   -0.3509 O   0  0  0  0  0  0  0  0  0  0  0  0
    2.3160    0.3482   -1.5167 O   0  0  0  0  0  0  0  0  0  0  0  0
    1.9744    4.7411   -0.8414 O   0  0  0  0  0  0  0  0  0  0  0  0
    4.6489    4.3203   -0.2098 O   0  0  0  0  0  0  0  0  0  0  0  0
    4.8008    1.4797   -0.7331 O   0  0  0  0  0  0  0  0  0  0  0  0
   -1.0925    2.6096    1.0453 O   0  0  0  0  0  0  0  0  0  0  0  0
    0.4132   -2.6137   -0.4235 O   0  0  0  0  0  0  0  0  0  0  0  0
   -0.2500    0.8501   -2.4648 O   0  0  0  0  0  0  0  0  0  0  0  0
   -2.7374    3.7500   -0.0918 O   0  0  0  0  0  0  0  0  0  0  0  0
   -2.7600    0.1897   -2.7815 O   0  0  0  0  0  0  0  0  0  0  0  0
   -4.1095   -3.9658   -0.9222 O   0  0  0  0  0  0  0  0  0  0  0  0
    4.5930   -1.7963    3.0631 O   0  0  0  0  0  0  0  0  0  0  0  0
    6.3538   -3.3184    1.5435 O   0  0  0  0  0  0  0  0  0  0  0  0
   -3.0093   -1.5066    2.7065 O   0  0  0  0  0  0  0  0  0  0  0  0
   -6.6692    0.5844    0.4320 O   0  0  0  0  0  0  0  0  0  0  0  0
   -5.6605   -1.5339    1.9041 O   0  0  0  0  0  0  0  0  0  0  0  0
    2.3111    4.0698    0.3743 C   0  0  2  0  0  0  0  0  0  0  0  0
    3.6677    3.3811    0.2211 C   0  0  1  0  0  0  0  0  0  0  0  0
    1.2321    3.0263    0.6839 C   0  0  1  0  0  0  0  0  0  0  0  0
    3.5911    2.2356   -0.7878 C   0  0  2  0  0  0  0  0  0  0  0  0
    2.4214    1.3041   -0.4621 C   0  0  1  0  0  0  0  0  0  0  0  0
   -0.1606    3.6397    0.7686 C   0  0  0  0  0  0  0  0  0  0  0  0
    1.2789   -0.5330   -1.2998 C   0  0  0  0  0  0  0  0  0  0  0  0
    1.4264   -1.6909   -0.6305 C   0  0  0  0  0  0  0  0  0  0  0  0
   -0.0548   -0.1892   -1.8489 C   0  0  0  0  0  0  0  0  0  0  0  0
   -1.1291   -1.1661   -1.6142 C   0  0  0  0  0  0  0  0  0  0  0  0
   -2.3529    2.7886    0.5558 C   0  0  0  0  0  0  0  0  0  0  0  0
   -0.8369   -2.3326   -0.9108 C   0  0  0  0  0  0  0  0  0  0  0  0
    2.7163   -2.1156   -0.0580 C   0  0  0  0  0  0  0  0  0  0  0  0
   -3.2293    1.6449    0.9139 C   0  0  0  0  0  0  0  0  0  0  0  0
   -2.4224   -0.9334   -2.0885 C   0  0  0  0  0  0  0  0  0  0  0  0
   -1.8380   -3.2759   -0.6772 C   0  0  0  0  0  0  0  0  0  0  0  0
    3.0540   -1.7540    1.2465 C   0  0  0  0  0  0  0  0  0  0  0  0
    3.6007   -2.8793   -0.8203 C   0  0  0  0  0  0  0  0  0  0  0  0
   -3.4221   -1.8781   -1.8532 C   0  0  0  0  0  0  0  0  0  0  0  0
   -3.1307   -3.0472   -1.1491 C   0  0  0  0  0  0  0  0  0  0  0  0
   -4.5455    1.6576    0.5000 C   0  0  0  0  0  0  0  0  0  0  0  0
   -2.6993    0.6035    1.6480 C   0  0  0  0  0  0  0  0  0  0  0  0
    4.2749   -2.1558    1.7883 C   0  0  0  0  0  0  0  0  0  0  0  0
    4.8215   -3.2812   -0.2787 C   0  0  0  0  0  0  0  0  0  0  0  0
    5.1587   -2.9195    1.0257 C   0  0  0  0  0  0  0  0  0  0  0  0
   -3.5218   -0.4721    1.9829 C   0  0  0  0  0  0  0  0  0  0  0  0
   -5.3679    0.5819    0.8351 C   0  0  0  0  0  0  0  0  0  0  0  0
   -4.8561   -0.4829    1.5765 C   0  0  0  0  0  0  0  0  0  0  0  0
    2.3561    4.8315    1.1606 H   0  0  0  0  0  0  0  0  0  0  0  0
    3.9981    2.9982    1.1948 H   0  0  0  0  0  0  0  0  0  0  0  0
    1.4500    2.5156    1.6311 H   0  0  0  0  0  0  0  0  0  0  0  0
    3.5068    2.6308   -1.8075 H   0  0  0  0  0  0  0  0  0  0  0  0
    2.6213    0.7897    0.4836 H   0  0  0  0  0  0  0  0  0  0  0  0
   -0.4031    4.1317   -0.1806 H   0  0  0  0  0  0  0  0  0  0  0  0
   -0.2041    4.3805    1.5740 H   0  0  0  0  0  0  0  0  0  0  0  0
    2.6942    5.3653   -1.0364 H   0  0  0  0  0  0  0  0  0  0  0  0
    5.4877    3.8390   -0.3127 H   0  0  0  0  0  0  0  0  0  0  0  0
    4.7082    0.7369   -1.3541 H   0  0  0  0  0  0  0  0  0  0  0  0
   -1.6067   -4.1849   -0.1276 H   0  0  0  0  0  0  0  0  0  0  0  0
    2.3671   -1.1678    1.8533 H   0  0  0  0  0  0  0  0  0  0  0  0
    3.3516   -3.1690   -1.8383 H   0  0  0  0  0  0  0  0  0  0  0  0
   -4.4318   -1.7038   -2.2172 H   0  0  0  0  0  0  0  0  0  0  0  0
   -4.9469    2.4849   -0.0786 H   0  0  0  0  0  0  0  0  0  0  0  0
   -1.6654    0.5761    1.9785 H   0  0  0  0  0  0  0  0  0  0  0  0
    5.5007   -3.8758   -0.8837 H   0  0  0  0  0  0  0  0  0  0  0  0
   -1.9991    0.7858   -2.8547 H   0  0  0  0  0  0  0  0  0  0  0  0
   -3.7339   -4.7093   -0.4202 H   0  0  0  0  0  0  0  0  0  0  0  0
    5.4714   -2.1586    3.2729 H   0  0  0  0  0  0  0  0  0  0  0  0
    6.8320   -3.8368    0.8738 H   0  0  0  0  0  0  0  0  0  0  0  0
   -3.7138   -2.1643    2.8406 H   0  0  0  0  0  0  0  0  0  0  0  0
   -6.8449    1.3988   -0.0698 H   0  0  0  0  0  0  0  0  0  0  0  0
   -6.5463   -1.3688    1.5367 H   0  0  0  0  0  0  0  0  0  0  0  0
  1 19  1  0  0  0  0
  1 21  1  0  0  0  0
  2 21  1  0  0  0  0
  2 23  1  0  0  0  0
  3 17  1  0  0  0  0
  3 52  1  0  0  0  0
  4 18  1  0  0  0  0
  4 53  1  0  0  0  0
  5 20  1  0  0  0  0
  5 54  1  0  0  0  0
  6 22  1  0  0  0  0
  6 27  1  0  0  0  0
  7 24  1  0  0  0  0
  7 28  1  0  0  0  0
  8 25  2  0  0  0  0
  9 27  2  0  0  0  0
 10 31  1  0  0  0  0
 10 62  1  0  0  0  0
 11 36  1  0  0  0  0
 11 63  1  0  0  0  0
 12 39  1  0  0  0  0
 12 64  1  0  0  0  0
 13 41  1  0  0  0  0
 13 65  1  0  0  0  0
 14 42  1  0  0  0  0
 14 66  1  0  0  0  0
 15 43  1  0  0  0  0
 15 67  1  0  0  0  0
 16 44  1  0  0  0  0
 16 68  1  0  0  0  0
 17 18  1  0  0  0  0
 17 19  1  0  0  0  0
 17 45  1  0  0  0  0
 18 20  1  0  0  0  0
 18 46  1  0  0  0  0
 19 22  1  0  0  0  0
 19 47  1  0  0  0  0
 20 21  1  0  0  0  0
 20 48  1  0  0  0  0
 21 49  1  0  0  0  0
 22 50  1  0  0  0  0
 22 51  1  0  0  0  0
 23 24  2  0  0  0  0
 23 25  1  0  0  0  0
 24 29  1  0  0  0  0
 25 26  1  0  0  0  0
 26 28  1  0  0  0  0
 26 31  2  0  0  0  0
 27 30  1  0  0  0  0
 28 32  2  0  0  0  0
 29 33  2  0  0  0  0
 29 34  1  0  0  0  0
 30 37  2  0  0  0  0
 30 38  1  0  0  0  0
 31 35  1  0  0  0  0
 32 36  1  0  0  0  0
 32 55  1  0  0  0  0
 33 39  1  0  0  0  0
 33 56  1  0  0  0  0
 34 40  2  0  0  0  0
 34 57  1  0  0  0  0
 35 36  2  0  0  0  0
 35 58  1  0  0  0  0
 37 43  1  0  0  0  0
 37 59  1  0  0  0  0
 38 42  2  0  0  0  0
 38 60  1  0  0  0  0
 39 41  2  0  0  0  0
 40 41  1  0  0  0  0
 40 61  1  0  0  0  0
 42 44  1  0  0  0  0
 43 44  2  0  0  0  0
M  END
> <PUBCHEM_COMPOUND_CID>
5491814

> <PUBCHEM_CONFORMER_RMSD>
1.2

> <PUBCHEM_CONFORMER_DIVERSEORDER>
1
467
164
529
486
535
581
57
41
116
368
48
150
124
256
220
138
254
133
606
219
221
168
545
299
54
340
477
485
614
248
79
130
180
68
432
611
123
435
574
495
74
446
476
303
330
169
493
253
19
34
319
320
453
225
52
210
217
289
583
90
284
215
270
514
522
6
286
128
71
387
136
91
244
622
291
364
157
578
251
16
155
105
129
35
10
580
100
50
482
117
558
175
351
378
196
472
608
4
267
14
618
262
532
24
237
573
501
540
193
113
605
226
415
3
99
249
218
149
579
424
536
72
171
391
27
55
430
484
111
313
252
134
542
234
2
189
494
43
413
345
192
104
20
396
167
427
271
240
386
33
142
528
250
177
564
178
95
292
12
63
447
337
53
151
607
205
85
182
15
108
314
275
206
75
375
361
207
46
230
241
32
96
121
17
616
109
114
30
21
203
65
93
13
257
416
40
395
194
132
399

> <PUBCHEM_MMFF94_PARTIAL_CHARGES>
61
1 -0.56
10 -0.53
11 -0.53
12 -0.53
13 -0.53
14 -0.53
15 -0.53
16 -0.53
17 0.28
18 0.28
19 0.28
2 -0.36
20 0.28
21 0.56
22 0.28
23 0.09
24 0.05
25 0.47
26 0.09
27 0.63
28 0.08
29 0.03
3 -0.68
30 0.09
31 0.08
32 -0.15
33 -0.15
34 -0.15
35 -0.15
36 0.08
37 -0.15
38 -0.15
39 0.08
4 -0.68
40 -0.15
41 0.08
42 0.08
43 0.08
44 0.08
5 -0.68
52 0.4
53 0.4
54 0.4
55 0.15
56 0.15
57 0.15
58 0.15
59 0.15
6 -0.43
60 0.15
61 0.15
62 0.45
63 0.45
64 0.45
65 0.45
66 0.45
67 0.45
68 0.45
7 -0.16
8 -0.57
9 -0.57

> <PUBCHEM_EFFECTIVE_ROTOR_COUNT>
8.2

> <PUBCHEM_PHARMACOPHORE_FEATURES>
23
1 1 acceptor
1 10 donor
1 11 donor
1 12 donor
1 13 donor
1 14 donor
1 15 donor
1 16 donor
1 2 acceptor
1 3 acceptor
1 3 donor
1 4 acceptor
1 4 donor
1 5 acceptor
1 5 donor
1 7 acceptor
1 8 acceptor
1 9 acceptor
6 1 17 18 19 20 21 rings
6 26 28 31 32 35 36 rings
6 29 33 34 39 40 41 rings
6 30 37 38 42 43 44 rings
6 7 23 24 25 26 28 rings

> <PUBCHEM_HEAVY_ATOM_COUNT>
44

> <PUBCHEM_ATOM_DEF_STEREO_COUNT>
5

> <PUBCHEM_ATOM_UDEF_STEREO_COUNT>
0

> <PUBCHEM_BOND_DEF_STEREO_COUNT>
0

> <PUBCHEM_BOND_UDEF_STEREO_COUNT>
0

> <PUBCHEM_ISOTOPIC_ATOM_COUNT>
0

> <PUBCHEM_COMPONENT_COUNT>
1

> <PUBCHEM_CACTVS_TAUTO_COUNT>
998

> <PUBCHEM_CONFORMER_ID>
0053CC6600000001

> <PUBCHEM_MMFF94_ENERGY>
134.0726

> <PUBCHEM_FEATURE_SELFOVERLAP>
116.853

> <PUBCHEM_SHAPE_FINGERPRINT>
10006869 2 18200311151758712023
1100329 8 18269550550806002100
12156800 1 15769202990141801117
12422481 6 17845648144984414882
13947930 73 18187661180139357411
140371 6 18197760142863864662
14117953 113 18055923087314924829
14725015 67 18262803939612079465
14950920 106 18041288698949682155
14955137 171 18194409896568978542
15001296 14 18412828023028232620
15264996 151 18267301127206457411
15274700 242 17978214291120784344
15297060 5 15911395098194875091
15351339 4 17696749239683409873
15444296 121 18121511154539178480
16112460 7 18407757045263104546
17627616 140 18339927141873344584
20764821 26 18271238413214255509
21033648 29 17628620960837213170
21927370 108 18118114781029322194
460360 51 18260822683729681246
469060 322 18054201277089647783
9896288 288 17405428802672261098

> <PUBCHEM_SHAPE_MULTIPOLES>
811.59
12.01
6.29
2.32
0.55
4.42
-0.36
-5.32
-6.22
-5.51
0.26
0.79
-1.28
-3

> <PUBCHEM_SHAPE_SELFOVERLAP>
1800.431

> <PUBCHEM_SHAPE_VOLUME>
428.9

> <PUBCHEM_COORDINATE_TYPE>
2
5
10

$$$$
