11968393
  -OEChem-09302003423D

 74 78  0     1  0  0  0  0  0999 V2000
   -0.7012   -1.4397    0.9702 O   0  0  0  0  0  0  0  0  0  0  0  0
    4.1514   -1.1051    0.1584 O   0  0  0  0  0  0  0  0  0  0  0  0
    1.8821   -0.6525    0.4573 O   0  0  0  0  0  0  0  0  0  0  0  0
    1.0577   -4.2348    2.5533 O   0  0  0  0  0  0  0  0  0  0  0  0
   -1.7196   -5.0225    2.7001 O   0  0  0  0  0  0  0  0  0  0  0  0
   -2.8919   -0.6535    1.1346 O   0  0  0  0  0  0  0  0  0  0  0  0
    2.1241    1.5827   -1.2611 O   0  0  0  0  0  0  0  0  0  0  0  0
   -3.4448   -2.6602    3.0517 O   0  0  0  0  0  0  0  0  0  0  0  0
    4.8551    2.6880   -1.2502 O   0  0  0  0  0  0  0  0  0  0  0  0
    6.7951    0.5971   -1.7196 O   0  0  0  0  0  0  0  0  0  0  0  0
    5.9937   -3.1440    0.0883 O   0  0  0  0  0  0  0  0  0  0  0  0
   -1.9642    2.2187   -1.0047 O   0  3  0  0  0  0  0  0  0  0  0  0
   -1.3037    3.5406    3.6234 O   0  0  0  0  0  0  0  0  0  0  0  0
   -0.2633    6.5608    0.0980 O   0  0  0  0  0  0  0  0  0  0  0  0
   -1.4384   -2.5680   -3.7052 O   0  0  0  0  0  0  0  0  0  0  0  0
   -4.0903   -2.6081   -4.5359 O   0  0  0  0  0  0  0  0  0  0  0  0
    0.3849   -2.1273    1.5934 C   0  0  1  0  0  0  0  0  0  0  0  0
   -0.0022   -3.5845    1.8571 C   0  0  2  0  0  0  0  0  0  0  0  0
   -1.2796   -3.6636    2.6931 C   0  0  1  0  0  0  0  0  0  0  0  0
    3.2413    1.0256   -0.5694 C   0  0  2  0  0  0  0  0  0  0  0  0
   -2.3789   -2.7757    2.1095 C   0  0  2  0  0  0  0  0  0  0  0  0
    4.5189    1.3042   -1.3613 C   0  0  2  0  0  0  0  0  0  0  0  0
    3.0039   -0.4758   -0.4072 C   0  0  1  0  0  0  0  0  0  0  0  0
    5.6933    0.4875   -0.8222 C   0  0  1  0  0  0  0  0  0  0  0  0
    5.3071   -0.9860   -0.6729 C   0  0  1  0  0  0  0  0  0  0  0  0
   -1.8560   -1.3723    1.8036 C   0  0  1  0  0  0  0  0  0  0  0  0
    1.5897   -2.0224    0.6638 C   0  0  0  0  0  0  0  0  0  0  0  0
    6.4240   -1.7999   -0.0270 C   0  0  0  0  0  0  0  0  0  0  0  0
   -2.4965    0.6253    0.8164 C   0  0  0  0  0  0  0  0  0  0  0  0
   -2.4157    1.0594   -0.6144 C   0  0  0  0  0  0  0  0  0  0  0  0
   -2.1188    1.5215    1.7370 C   0  0  0  0  0  0  0  0  0  0  0  0
   -1.6444    2.8426    1.3409 C   0  0  0  0  0  0  0  0  0  0  0  0
   -2.8536    0.0916   -1.6473 C   0  0  0  0  0  0  0  0  0  0  0  0
   -1.5702    3.1467   -0.0223 C   0  0  0  0  0  0  0  0  0  0  0  0
   -1.2508    3.7957    2.2847 C   0  0  0  0  0  0  0  0  0  0  0  0
   -1.1065    4.3947   -0.4396 C   0  0  0  0  0  0  0  0  0  0  0  0
   -1.9324   -0.7929   -2.1966 C   0  0  0  0  0  0  0  0  0  0  0  0
   -4.1817    0.0779   -2.0582 C   0  0  0  0  0  0  0  0  0  0  0  0
   -0.7881    5.0441    1.8646 C   0  0  0  0  0  0  0  0  0  0  0  0
   -0.7155    5.3429    0.5042 C   0  0  0  0  0  0  0  0  0  0  0  0
   -2.3447   -1.7034   -3.1697 C   0  0  0  0  0  0  0  0  0  0  0  0
   -4.5939   -0.8324   -3.0315 C   0  0  0  0  0  0  0  0  0  0  0  0
   -3.6754   -1.7231   -3.5871 C   0  0  0  0  0  0  0  0  0  0  0  0
    0.6343   -1.6119    2.5310 H   0  0  0  0  0  0  0  0  0  0  0  0
   -0.1590   -4.1193    0.9112 H   0  0  0  0  0  0  0  0  0  0  0  0
   -1.0790   -3.4010    3.7385 H   0  0  0  0  0  0  0  0  0  0  0  0
    3.2854    1.5181    0.4093 H   0  0  0  0  0  0  0  0  0  0  0  0
   -2.7979   -3.2362    1.2061 H   0  0  0  0  0  0  0  0  0  0  0  0
    4.3704    1.1067   -2.4301 H   0  0  0  0  0  0  0  0  0  0  0  0
    2.7639   -0.9359   -1.3755 H   0  0  0  0  0  0  0  0  0  0  0  0
    6.0132    0.9020    0.1417 H   0  0  0  0  0  0  0  0  0  0  0  0
    5.0811   -1.4354   -1.6495 H   0  0  0  0  0  0  0  0  0  0  0  0
   -1.6095   -0.8743    2.7513 H   0  0  0  0  0  0  0  0  0  0  0  0
    1.3584   -2.4846   -0.3036 H   0  0  0  0  0  0  0  0  0  0  0  0
    2.4524   -2.5284    1.1084 H   0  0  0  0  0  0  0  0  0  0  0  0
    7.3382   -1.7810   -0.6272 H   0  0  0  0  0  0  0  0  0  0  0  0
    6.6549   -1.4356    0.9796 H   0  0  0  0  0  0  0  0  0  0  0  0
    1.7689   -4.4117    1.9151 H   0  0  0  0  0  0  0  0  0  0  0  0
   -1.9242   -5.2793    1.7847 H   0  0  0  0  0  0  0  0  0  0  0  0
    2.0667    1.1575   -2.1338 H   0  0  0  0  0  0  0  0  0  0  0  0
   -4.1182   -2.0783    2.6595 H   0  0  0  0  0  0  0  0  0  0  0  0
    4.0909    3.1983   -1.5688 H   0  0  0  0  0  0  0  0  0  0  0  0
    6.5246    0.2211   -2.5748 H   0  0  0  0  0  0  0  0  0  0  0  0
    5.1787   -3.1476    0.6191 H   0  0  0  0  0  0  0  0  0  0  0  0
   -2.1836    1.2661    2.7869 H   0  0  0  0  0  0  0  0  0  0  0  0
   -1.0564    4.6149   -1.5024 H   0  0  0  0  0  0  0  0  0  0  0  0
   -0.8937   -0.7774   -1.8758 H   0  0  0  0  0  0  0  0  0  0  0  0
   -4.9036    0.7685   -1.6310 H   0  0  0  0  0  0  0  0  0  0  0  0
   -0.4820    5.7854    2.5990 H   0  0  0  0  0  0  0  0  0  0  0  0
   -5.6337   -0.8369   -3.3474 H   0  0  0  0  0  0  0  0  0  0  0  0
   -1.2132    2.5901    3.7912 H   0  0  0  0  0  0  0  0  0  0  0  0
   -0.2797    6.5949   -0.8739 H   0  0  0  0  0  0  0  0  0  0  0  0
   -1.8956   -3.1235   -4.3603 H   0  0  0  0  0  0  0  0  0  0  0  0
   -5.0403   -2.4766   -4.6979 H   0  0  0  0  0  0  0  0  0  0  0  0
  1 17  1  0  0  0  0
  1 26  1  0  0  0  0
  2 23  1  0  0  0  0
  2 25  1  0  0  0  0
  3 23  1  0  0  0  0
  3 27  1  0  0  0  0
  4 18  1  0  0  0  0
  4 58  1  0  0  0  0
  5 19  1  0  0  0  0
  5 59  1  0  0  0  0
  6 26  1  0  0  0  0
  6 29  1  0  0  0  0
  7 20  1  0  0  0  0
  7 60  1  0  0  0  0
  8 21  1  0  0  0  0
  8 61  1  0  0  0  0
  9 22  1  0  0  0  0
  9 62  1  0  0  0  0
 10 24  1  0  0  0  0
 10 63  1  0  0  0  0
 11 28  1  0  0  0  0
 11 64  1  0  0  0  0
 12 30  2  0  0  0  0
 12 34  1  0  0  0  0
 13 35  1  0  0  0  0
 13 71  1  0  0  0  0
 14 40  1  0  0  0  0
 14 72  1  0  0  0  0
 15 41  1  0  0  0  0
 15 73  1  0  0  0  0
 16 43  1  0  0  0  0
 16 74  1  0  0  0  0
 17 18  1  0  0  0  0
 17 27  1  0  0  0  0
 17 44  1  0  0  0  0
 18 19  1  0  0  0  0
 18 45  1  0  0  0  0
 19 21  1  0  0  0  0
 19 46  1  0  0  0  0
 20 22  1  0  0  0  0
 20 23  1  0  0  0  0
 20 47  1  0  0  0  0
 21 26  1  0  0  0  0
 21 48  1  0  0  0  0
 22 24  1  0  0  0  0
 22 49  1  0  0  0  0
 23 50  1  0  0  0  0
 24 25  1  0  0  0  0
 24 51  1  0  0  0  0
 25 28  1  0  0  0  0
 25 52  1  0  0  0  0
 26 53  1  0  0  0  0
 27 54  1  0  0  0  0
 27 55  1  0  0  0  0
 28 56  1  0  0  0  0
 28 57  1  0  0  0  0
 29 30  1  0  0  0  0
 29 31  2  0  0  0  0
 30 33  1  0  0  0  0
 31 32  1  0  0  0  0
 31 65  1  0  0  0  0
 32 34  1  0  0  0  0
 32 35  2  0  0  0  0
 33 37  2  0  0  0  0
 33 38  1  0  0  0  0
 34 36  2  0  0  0  0
 35 39  1  0  0  0  0
 36 40  1  0  0  0  0
 36 66  1  0  0  0  0
 37 41  1  0  0  0  0
 37 67  1  0  0  0  0
 38 42  2  0  0  0  0
 38 68  1  0  0  0  0
 39 40  2  0  0  0  0
 39 69  1  0  0  0  0
 41 43  2  0  0  0  0
 42 43  1  0  0  0  0
 42 70  1  0  0  0  0
M  CHG  1  12   1
M  END
> <PUBCHEM_COMPOUND_CID>
11968393

> <PUBCHEM_CONFORMER_RMSD>
1.2

> <PUBCHEM_CONFORMER_DIVERSEORDER>
1
253
279
309
355
289
87
131
124
53
237
352
173
200
248
221
16
259
320
319
163
295
145
263
229
63
209
371
251
179
100
272
202
164
234
106
195
231
341
72
351
12
298
69
344
166
312
369
249
43
74
90
267
75
96
328
157
364
276
250
130
150
33
129
120
296
294
338
143
299
332
159
268
375
203
346
40
30
186
239
356
4
169
245
232
336
184
366
19
212
99
222
162
333
52
264
367
144
141
113
303
10
348
160
94
8
255
196
125
26
317
62
277
139
283
127
23
133
270
60
257
343
71
67
187
339
331
25
82
61
238
180
383
233
243
207
189
302
7
365
208
37
77
325
213
315
224
227
225
373
97
151
88
11
323
104
28
171
354
353
240
85
149
49
368
137
155
382
6
78
161
311
126
79
98
318
132
260
254
307
93
340
281
246
146
284
334
308
142
360
165
262
185
136
121
45
42
244
14
287
211
266
140
274
219
275
327
192
273
322
314
316
190
51
36
197
292
134
181
102
210
73
313
50
215
265
235
154
34
170
39
278
46
47
95
372
282
65
370
288
330
176
175
280
178
9
350
21
218
363
321
230
271
59
258
220
223
122
66
306
22
291
301
58
119
300
214
24
326
38
378
381
324
201
337
29
379
349
128
35
226
70
183
156
199
342
158
118
310
80
261
110
86
174
194
335
68
115
147
191
123
177
242
293
290
55
361
81
135
305
114
111
193
304
116
27
103
182
2
153
380
112
362
18
347
13
32
64
117
15
54
205
56
83
357
285
256
105
168
108
241
109
216
198
92
31
247
206
286
269
91
148
204
167
236
377
376
138
76
374
5
107
57
297
228
152
41
101
252
358
84
188
20
17
48
172
329
359
89
44
217
3
345

> <PUBCHEM_MMFF94_PARTIAL_CHARGES>
60
1 -0.56
10 -0.68
11 -0.68
12 -0.87
13 -0.53
14 -0.53
15 -0.53
16 -0.53
17 0.28
18 0.28
19 0.28
2 -0.56
20 0.28
21 0.28
22 0.28
23 0.56
24 0.28
25 0.28
26 0.56
27 0.28
28 0.28
29 0.09
3 -0.56
30 0.85
31 -0.18
32 0.03
33 0.09
34 0.92
35 0.08
36 -0.15
37 -0.15
38 -0.15
39 -0.15
4 -0.68
40 0.08
41 0.08
42 -0.15
43 0.08
5 -0.68
58 0.4
59 0.4
6 -0.36
60 0.4
61 0.4
62 0.4
63 0.4
64 0.4
65 0.15
66 0.15
67 0.15
68 0.15
69 0.15
7 -0.68
70 0.15
71 0.45
72 0.45
73 0.45
74 0.45
8 -0.68
9 -0.68

> <PUBCHEM_EFFECTIVE_ROTOR_COUNT>
9.4

> <PUBCHEM_PHARMACOPHORE_FEATURES>
27
1 1 acceptor
1 10 acceptor
1 10 donor
1 11 acceptor
1 11 donor
1 13 donor
1 14 donor
1 15 donor
1 16 donor
1 2 acceptor
1 3 acceptor
1 4 acceptor
1 4 donor
1 5 acceptor
1 5 donor
1 6 acceptor
1 7 acceptor
1 7 donor
1 8 acceptor
1 8 donor
1 9 acceptor
1 9 donor
6 1 17 18 19 21 26 rings
6 12 29 30 31 32 34 rings
6 2 20 22 23 24 25 rings
6 32 34 35 36 39 40 rings
6 33 37 38 41 42 43 rings

> <PUBCHEM_HEAVY_ATOM_COUNT>
43

> <PUBCHEM_ATOM_DEF_STEREO_COUNT>
10

> <PUBCHEM_ATOM_UDEF_STEREO_COUNT>
0

> <PUBCHEM_BOND_DEF_STEREO_COUNT>
0

> <PUBCHEM_BOND_UDEF_STEREO_COUNT>
0

> <PUBCHEM_ISOTOPIC_ATOM_COUNT>
0

> <PUBCHEM_COMPONENT_COUNT>
1

> <PUBCHEM_CACTVS_TAUTO_COUNT>
154

> <PUBCHEM_CONFORMER_ID>
00B69F8900000001

> <PUBCHEM_MMFF94_ENERGY>
136.1044

> <PUBCHEM_FEATURE_SELFOVERLAP>
137.208

> <PUBCHEM_SHAPE_FINGERPRINT>
10032420 55 17973688563594356709
11285246 1 18121198021432356231
11607047 403 16625504639209446417
11763715 3 17837165417504198531
12156800 1 15942841276635933567
12655364 131 17682370596010711330
12788726 201 18054767513352167293
14114206 34 18409440375884197200
15219462 58 17251497209154227785
15361156 5 18268727017636190870
15448158 6 17683829952245260986
15484559 13 16391204548111632725
15775530 1 17397808555177693025
19319366 153 17977113365825879513
20775438 99 17190062425810956239
3388396 114 18340202003371124772
469060 322 17703239532215346863
50150288 127 18127125265258648621
550186 7 18053696653266742966

> <PUBCHEM_SHAPE_MULTIPOLES>
791.01
10.45
7.72
4.25
23.8
8.7
-1.64
-4.13
-8.57
-4.04
5.91
-6.33
-4.47
-3.34

> <PUBCHEM_SHAPE_SELFOVERLAP>
1715.094

> <PUBCHEM_SHAPE_VOLUME>
426.3

> <PUBCHEM_COORDINATE_TYPE>
2
5
10

$$$$
