86328677
  -OEChem-09302002553D

 56 59  0     1  0  0  0  0  0999 V2000
   -1.8049   -0.7537   -0.4782 O   0  0  0  0  0  0  0  0  0  0  0  0
   -0.2108   -0.8128    1.2435 O   0  0  0  0  0  0  0  0  0  0  0  0
   -3.3117   -4.4479    0.6272 O   0  0  0  0  0  0  0  0  0  0  0  0
   -3.8743   -3.3812   -1.9984 O   0  0  0  0  0  0  0  0  0  0  0  0
   -2.6051   -2.0657    1.8944 O   0  0  0  0  0  0  0  0  0  0  0  0
   -4.3016    0.0714   -1.3923 O   0  0  0  0  0  0  0  0  0  0  0  0
    2.1920    1.4403   -0.4113 O   0  0  0  0  0  0  0  0  0  0  0  0
    2.1870   -2.2140    1.3914 O   0  0  0  0  0  0  0  0  0  0  0  0
    4.7471   -2.4566    0.9198 O   0  0  0  0  0  0  0  0  0  0  0  0
   -2.6095    3.5036    2.0416 O   0  0  0  0  0  0  0  0  0  0  0  0
    6.8356    1.1519   -1.3523 O   0  0  0  0  0  0  0  0  0  0  0  0
   -3.4405    4.2520   -0.5036 O   0  0  0  0  0  0  0  0  0  0  0  0
   -2.4703   -3.5113   -0.0402 C   0  0  1  0  0  0  0  0  0  0  0  0
   -3.3285   -2.6097   -0.9314 C   0  0  1  0  0  0  0  0  0  0  0  0
   -1.6919   -2.6835    0.9821 C   0  0  1  0  0  0  0  0  0  0  0  0
   -2.4815   -1.4706   -1.5159 C   0  0  1  0  0  0  0  0  0  0  0  0
   -0.9099   -1.5810    0.2689 C   0  0  1  0  0  0  0  0  0  0  0  0
   -3.3407   -0.4689   -2.2809 C   0  0  0  0  0  0  0  0  0  0  0  0
    0.9624   -0.2953    0.7385 C   0  0  0  0  0  0  0  0  0  0  0  0
    1.0364    0.9055    0.1359 C   0  0  0  0  0  0  0  0  0  0  0  0
    2.1925   -1.1152    0.8525 C   0  0  0  0  0  0  0  0  0  0  0  0
    3.4182   -0.5366    0.2815 C   0  0  0  0  0  0  0  0  0  0  0  0
    3.3529    0.7165   -0.3235 C   0  0  0  0  0  0  0  0  0  0  0  0
   -0.1366    1.7825   -0.0286 C   0  0  0  0  0  0  0  0  0  0  0  0
    4.6301   -1.2293    0.3408 C   0  0  0  0  0  0  0  0  0  0  0  0
    4.5014    1.2864   -0.8739 C   0  0  0  0  0  0  0  0  0  0  0  0
   -0.8300    2.2365    1.0933 C   0  0  0  0  0  0  0  0  0  0  0  0
   -0.5535    2.1583   -1.3055 C   0  0  0  0  0  0  0  0  0  0  0  0
    5.7773   -0.6572   -0.2104 C   0  0  0  0  0  0  0  0  0  0  0  0
    5.7134    0.5980   -0.8164 C   0  0  0  0  0  0  0  0  0  0  0  0
   -1.9405    3.0664    0.9383 C   0  0  0  0  0  0  0  0  0  0  0  0
   -1.6640    2.9880   -1.4605 C   0  0  0  0  0  0  0  0  0  0  0  0
   -2.3575    3.4421   -0.3387 C   0  0  0  0  0  0  0  0  0  0  0  0
   -3.6829    2.6911    2.5126 C   0  0  0  0  0  0  0  0  0  0  0  0
   -1.7763   -4.0914   -0.6610 H   0  0  0  0  0  0  0  0  0  0  0  0
   -4.1748   -2.2278   -0.3494 H   0  0  0  0  0  0  0  0  0  0  0  0
   -1.0334   -3.3171    1.5853 H   0  0  0  0  0  0  0  0  0  0  0  0
   -1.7351   -1.8681   -2.2164 H   0  0  0  0  0  0  0  0  0  0  0  0
   -0.1995   -2.0529   -0.4265 H   0  0  0  0  0  0  0  0  0  0  0  0
   -2.7274    0.3539   -2.6593 H   0  0  0  0  0  0  0  0  0  0  0  0
   -3.8579   -0.9421   -3.1211 H   0  0  0  0  0  0  0  0  0  0  0  0
   -2.7444   -4.9987    1.1932 H   0  0  0  0  0  0  0  0  0  0  0  0
   -3.1356   -3.7355   -2.5222 H   0  0  0  0  0  0  0  0  0  0  0  0
   -3.0680   -1.3500    1.4269 H   0  0  0  0  0  0  0  0  0  0  0  0
   -4.8250    0.7187   -1.8948 H   0  0  0  0  0  0  0  0  0  0  0  0
    4.4539    2.2641   -1.3468 H   0  0  0  0  0  0  0  0  0  0  0  0
   -0.5108    1.9573    2.0952 H   0  0  0  0  0  0  0  0  0  0  0  0
   -0.0272    1.8093   -2.1906 H   0  0  0  0  0  0  0  0  0  0  0  0
    6.7213   -1.1953   -0.1649 H   0  0  0  0  0  0  0  0  0  0  0  0
   -1.9794    3.2710   -2.4612 H   0  0  0  0  0  0  0  0  0  0  0  0
    3.8921   -2.7517    1.2683 H   0  0  0  0  0  0  0  0  0  0  0  0
    7.5813    0.5407   -1.2241 H   0  0  0  0  0  0  0  0  0  0  0  0
   -3.5811    4.4031   -1.4540 H   0  0  0  0  0  0  0  0  0  0  0  0
   -4.1155    3.1716    3.3943 H   0  0  0  0  0  0  0  0  0  0  0  0
   -3.3166    1.6996    2.7979 H   0  0  0  0  0  0  0  0  0  0  0  0
   -4.4601    2.5979    1.7474 H   0  0  0  0  0  0  0  0  0  0  0  0
  1 16  1  0  0  0  0
  1 17  1  0  0  0  0
  2 17  1  0  0  0  0
  2 19  1  0  0  0  0
  3 13  1  0  0  0  0
  3 42  1  0  0  0  0
  4 14  1  0  0  0  0
  4 43  1  0  0  0  0
  5 15  1  0  0  0  0
  5 44  1  0  0  0  0
  6 18  1  0  0  0  0
  6 45  1  0  0  0  0
  7 20  1  0  0  0  0
  7 23  1  0  0  0  0
  8 21  2  0  0  0  0
  9 25  1  0  0  0  0
  9 51  1  0  0  0  0
 10 31  1  0  0  0  0
 10 34  1  0  0  0  0
 11 30  1  0  0  0  0
 11 52  1  0  0  0  0
 12 33  1  0  0  0  0
 12 53  1  0  0  0  0
 13 14  1  0  0  0  0
 13 15  1  0  0  0  0
 13 35  1  0  0  0  0
 14 16  1  0  0  0  0
 14 36  1  0  0  0  0
 15 17  1  0  0  0  0
 15 37  1  0  0  0  0
 16 18  1  0  0  0  0
 16 38  1  0  0  0  0
 17 39  1  0  0  0  0
 18 40  1  0  0  0  0
 18 41  1  0  0  0  0
 19 20  2  0  0  0  0
 19 21  1  0  0  0  0
 20 24  1  0  0  0  0
 21 22  1  0  0  0  0
 22 23  1  0  0  0  0
 22 25  2  0  0  0  0
 23 26  2  0  0  0  0
 24 27  2  0  0  0  0
 24 28  1  0  0  0  0
 25 29  1  0  0  0  0
 26 30  1  0  0  0  0
 26 46  1  0  0  0  0
 27 31  1  0  0  0  0
 27 47  1  0  0  0  0
 28 32  2  0  0  0  0
 28 48  1  0  0  0  0
 29 30  2  0  0  0  0
 29 49  1  0  0  0  0
 31 33  2  0  0  0  0
 32 33  1  0  0  0  0
 32 50  1  0  0  0  0
 34 54  1  0  0  0  0
 34 55  1  0  0  0  0
 34 56  1  0  0  0  0
M  END
> <PUBCHEM_COMPOUND_CID>
86328677

> <PUBCHEM_CONFORMER_RMSD>
1

> <PUBCHEM_CONFORMER_DIVERSEORDER>
1
47
43
24
30
49
48
36
42
10
27
38
19
22
39
46
35
4
45
26
9
13
17
32
44
25
40
34
8
16
37
3
33
41
2
6
15
7
29
5
21
11
14
12
23
20
31
18
28

> <PUBCHEM_MMFF94_PARTIAL_CHARGES>
46
1 -0.56
10 -0.36
11 -0.53
12 -0.53
13 0.28
14 0.28
15 0.28
16 0.28
17 0.56
18 0.28
19 0.09
2 -0.36
20 0.05
21 0.47
22 0.09
23 0.08
24 0.03
25 0.08
26 -0.15
27 -0.15
28 -0.15
29 -0.15
3 -0.68
30 0.08
31 0.08
32 -0.15
33 0.08
34 0.28
4 -0.68
42 0.4
43 0.4
44 0.4
45 0.4
46 0.15
47 0.15
48 0.15
49 0.15
5 -0.68
50 0.15
51 0.45
52 0.45
53 0.45
6 -0.68
7 -0.16
8 -0.57
9 -0.53

> <PUBCHEM_EFFECTIVE_ROTOR_COUNT>
6.2

> <PUBCHEM_PHARMACOPHORE_FEATURES>
20
1 1 acceptor
1 10 acceptor
1 11 donor
1 12 donor
1 2 acceptor
1 3 acceptor
1 3 donor
1 4 acceptor
1 4 donor
1 5 acceptor
1 5 donor
1 6 acceptor
1 6 donor
1 7 acceptor
1 8 acceptor
1 9 donor
6 1 13 14 15 16 17 rings
6 22 23 25 26 29 30 rings
6 24 27 28 31 32 33 rings
6 7 19 20 21 22 23 rings

> <PUBCHEM_HEAVY_ATOM_COUNT>
34

> <PUBCHEM_ATOM_DEF_STEREO_COUNT>
5

> <PUBCHEM_ATOM_UDEF_STEREO_COUNT>
0

> <PUBCHEM_BOND_DEF_STEREO_COUNT>
0

> <PUBCHEM_BOND_UDEF_STEREO_COUNT>
0

> <PUBCHEM_ISOTOPIC_ATOM_COUNT>
0

> <PUBCHEM_COMPONENT_COUNT>
1

> <PUBCHEM_CACTVS_TAUTO_COUNT>
45

> <PUBCHEM_CONFORMER_ID>
0525456500000001

> <PUBCHEM_MMFF94_ENERGY>
118.1987

> <PUBCHEM_FEATURE_SELFOVERLAP>
101.609

> <PUBCHEM_SHAPE_FINGERPRINT>
10190206 1 18044112348574399892
11115154 58 18127682941546203207
11578080 2 17846203497420505808
12156800 1 17833598644732749087
12788726 201 18341601595319496567
13540713 5 18187080625610393786
13583140 156 14923946730767594628
13631057 29 18339078306750180700
140371 6 17898865796981771896
14114206 34 18122871357981907285
14251757 5 18411128143612889975
14790565 3 18119524332474753421
15131766 46 15578136469474220476
17138139 8 17768486618667242469
17909252 39 18267581489269842778
20587220 17 16478574624109989801
21120745 212 18269285710232834293
221357 26 18044928215318057447
23536364 44 18262516017108748559
23559900 14 18263634234100092932
25147074 1 18260822645570769586
283562 15 18262240048960229490
3027735 51 18272084955220776119
38695281 34 17832700171560267060
469060 322 16009326382313749171
5171179 24 17987231317033630824
5912855 24 18411987949068971386
59755656 520 17915187806008667848
6669772 16 17837494046678996982

> <PUBCHEM_SHAPE_MULTIPOLES>
629.27
10.75
5.37
1.88
18.32
0.03
-0.12
1.31
2.94
-8.83
-0.79
-2.18
-0.35
-2.6

> <PUBCHEM_SHAPE_SELFOVERLAP>
1380.347

> <PUBCHEM_SHAPE_VOLUME>
338.3

> <PUBCHEM_COORDINATE_TYPE>
2
5
10

$$$$
