12304982
  -OEChem-09292012083D

 42 44  0     1  0  0  0  0  0999 V2000
    3.2011    1.0153   -0.6504 O   0  0  0  0  0  0  0  0  0  0  0  0
   -1.1820   -0.0842   -0.6080 C   0  0  1  0  0  0  0  0  0  0  0  0
   -2.3404    0.6555    0.0075 C   0  0  0  0  0  0  0  0  0  0  0  0
   -1.2587    1.4188   -0.7109 C   0  0  1  0  0  0  0  0  0  0  0  0
   -0.1121   -0.6956    0.2488 C   0  0  2  0  0  0  0  0  0  0  0  0
    1.2758   -0.4094   -0.3794 C   0  0  1  0  0  0  0  0  0  0  0  0
   -0.3072    2.2952    0.0477 C   0  0  0  0  0  0  0  0  0  0  0  0
   -0.1843   -2.2341    0.4214 C   0  0  2  0  0  0  0  0  0  0  0  0
    1.9366    0.9293    0.0339 C   0  0  2  0  0  0  0  0  0  0  0  0
    2.0830   -1.6815   -0.0980 C   0  0  0  0  0  0  0  0  0  0  0  0
    1.1318    2.1610   -0.4586 C   0  0  0  0  0  0  0  0  0  0  0  0
   -3.7054    0.5393   -0.5818 C   0  0  0  0  0  0  0  0  0  0  0  0
   -2.3598    0.7527    1.4966 C   0  0  0  0  0  0  0  0  0  0  0  0
    1.0481   -2.7787   -0.3030 C   0  0  0  0  0  0  0  0  0  0  0  0
   -1.4703   -2.9289    0.0002 C   0  0  0  0  0  0  0  0  0  0  0  0
    2.2437    1.0453    1.5339 C   0  0  0  0  0  0  0  0  0  0  0  0
   -1.3303   -0.6166   -1.5410 H   0  0  0  0  0  0  0  0  0  0  0  0
   -1.4808    1.8260   -1.6918 H   0  0  0  0  0  0  0  0  0  0  0  0
   -0.1064   -0.2997    1.2616 H   0  0  0  0  0  0  0  0  0  0  0  0
    1.1615   -0.3772   -1.4753 H   0  0  0  0  0  0  0  0  0  0  0  0
   -0.3175    2.1920    1.1310 H   0  0  0  0  0  0  0  0  0  0  0  0
   -0.6283    3.3294   -0.1351 H   0  0  0  0  0  0  0  0  0  0  0  0
   -0.0461   -2.4429    1.4927 H   0  0  0  0  0  0  0  0  0  0  0  0
    2.4571   -1.7099    0.9305 H   0  0  0  0  0  0  0  0  0  0  0  0
    2.9331   -1.7930   -0.7777 H   0  0  0  0  0  0  0  0  0  0  0  0
    1.1314    2.1771   -1.5577 H   0  0  0  0  0  0  0  0  0  0  0  0
    1.6837    3.0665   -0.1696 H   0  0  0  0  0  0  0  0  0  0  0  0
   -3.6687    0.4634   -1.6741 H   0  0  0  0  0  0  0  0  0  0  0  0
   -4.3127    1.4152   -0.3311 H   0  0  0  0  0  0  0  0  0  0  0  0
   -4.2160   -0.3534   -0.2053 H   0  0  0  0  0  0  0  0  0  0  0  0
   -1.4222    0.8681    2.0368 H   0  0  0  0  0  0  0  0  0  0  0  0
   -2.8365   -0.1438    1.9122 H   0  0  0  0  0  0  0  0  0  0  0  0
   -2.9806    1.6066    1.7956 H   0  0  0  0  0  0  0  0  0  0  0  0
    0.8480   -2.9174   -1.3724 H   0  0  0  0  0  0  0  0  0  0  0  0
    1.3800   -3.7365    0.1094 H   0  0  0  0  0  0  0  0  0  0  0  0
   -2.3328   -2.5087    0.5270 H   0  0  0  0  0  0  0  0  0  0  0  0
   -1.6469   -2.8465   -1.0767 H   0  0  0  0  0  0  0  0  0  0  0  0
   -1.4215   -3.9964    0.2413 H   0  0  0  0  0  0  0  0  0  0  0  0
    2.9452    0.2688    1.8561 H   0  0  0  0  0  0  0  0  0  0  0  0
    2.7446    1.9975    1.7471 H   0  0  0  0  0  0  0  0  0  0  0  0
    1.3535    0.9897    2.1639 H   0  0  0  0  0  0  0  0  0  0  0  0
    3.0358    0.9281   -1.6047 H   0  0  0  0  0  0  0  0  0  0  0  0
  1  9  1  0  0  0  0
  1 42  1  0  0  0  0
  2  3  1  0  0  0  0
  2  4  1  0  0  0  0
  2  5  1  0  0  0  0
  2 17  1  0  0  0  0
  3  4  1  0  0  0  0
  3 12  1  0  0  0  0
  3 13  1  0  0  0  0
  4  7  1  0  0  0  0
  4 18  1  0  0  0  0
  5  6  1  0  0  0  0
  5  8  1  0  0  0  0
  5 19  1  0  0  0  0
  6  9  1  0  0  0  0
  6 10  1  0  0  0  0
  6 20  1  0  0  0  0
  7 11  1  0  0  0  0
  7 21  1  0  0  0  0
  7 22  1  0  0  0  0
  8 14  1  0  0  0  0
  8 15  1  0  0  0  0
  8 23  1  0  0  0  0
  9 11  1  0  0  0  0
  9 16  1  0  0  0  0
 10 14  1  0  0  0  0
 10 24  1  0  0  0  0
 10 25  1  0  0  0  0
 11 26  1  0  0  0  0
 11 27  1  0  0  0  0
 12 28  1  0  0  0  0
 12 29  1  0  0  0  0
 12 30  1  0  0  0  0
 13 31  1  0  0  0  0
 13 32  1  0  0  0  0
 13 33  1  0  0  0  0
 14 34  1  0  0  0  0
 14 35  1  0  0  0  0
 15 36  1  0  0  0  0
 15 37  1  0  0  0  0
 15 38  1  0  0  0  0
 16 39  1  0  0  0  0
 16 40  1  0  0  0  0
 16 41  1  0  0  0  0
M  END
> <PUBCHEM_COMPOUND_CID>
12304982

> <PUBCHEM_CONFORMER_RMSD>
0.6

> <PUBCHEM_CONFORMER_DIVERSEORDER>
1

> <PUBCHEM_MMFF94_PARTIAL_CHARGES>
12
1 -0.68
12 0.09
13 0.09
17 0.1
18 0.1
2 -0.19
3 -0.19
4 -0.19
42 0.4
5 0.09
7 0.09
9 0.28

> <PUBCHEM_EFFECTIVE_ROTOR_COUNT>
1.4

> <PUBCHEM_PHARMACOPHORE_FEATURES>
5
1 1 acceptor
1 1 donor
3 3 12 13 hydrophobe
5 5 6 8 10 14 rings
7 2 4 5 6 7 9 11 rings

> <PUBCHEM_HEAVY_ATOM_COUNT>
16

> <PUBCHEM_ATOM_DEF_STEREO_COUNT>
6

> <PUBCHEM_ATOM_UDEF_STEREO_COUNT>
0

> <PUBCHEM_BOND_DEF_STEREO_COUNT>
0

> <PUBCHEM_BOND_UDEF_STEREO_COUNT>
0

> <PUBCHEM_ISOTOPIC_ATOM_COUNT>
0

> <PUBCHEM_COMPONENT_COUNT>
1

> <PUBCHEM_CACTVS_TAUTO_COUNT>
1

> <PUBCHEM_CONFORMER_ID>
00BBC25600000001

> <PUBCHEM_MMFF94_ENERGY>
58.0039

> <PUBCHEM_FEATURE_SELFOVERLAP>
25.396

> <PUBCHEM_SHAPE_FINGERPRINT>
104564 63 17688881155960073223
108231 29 17909824341270479042
10967382 1 18409729530209464671
11578080 2 12365457033269356073
11680611 10 17826778528445058072
11680986 33 18411417323529269010
12423570 1 8754145176261129640
13027679 85 17258781417130475190
13132413 78 16033246597152129349
13140716 1 18194400215385509400
13172582 1 18335127730773879016
13380535 76 18410849979919041526
14251717 144 18337663136379464413
14787075 74 17198520913244917681
14817 1 11115821639309908210
15309172 13 18408893952927981625
15775835 57 18201441341731156297
16752209 62 17977378665939616774
16945 1 18410575106148848237
193761 8 18193277622466139566
20388701 513 17477471471102593840
20510252 161 17838338840828090568
20588541 1 18410013251554304404
20645477 70 18265886970289858973
21061003 4 17835809599027959147
21501502 16 18409729603498565966
22802520 49 18128837381056533934
2334 1 18338236088816326438
23419403 2 14866620444477773732
23493267 7 17240778232707061808
23526113 38 17846514646663958172
23526114 1 18193556662280679133
241688 4 17832142723475522848
257057 1 17182198237728392843
2748010 2 18339087097973482302
5084963 1 18057312895180649123
528886 8 18410574015406379616
63268167 104 18342739563894731745
7364860 26 18127681634921038015
81228 2 17833829747985170626

> <PUBCHEM_SHAPE_MULTIPOLES>
323.4
4.08
3.2
1.04
1.47
1.94
0.37
-1.1
-0.07
-0.73
-0.12
0.07
-0.32
0.14

> <PUBCHEM_SHAPE_SELFOVERLAP>
674.265

> <PUBCHEM_SHAPE_VOLUME>
187.4

> <PUBCHEM_COORDINATE_TYPE>
2
5
10

$$$$
