11700083
  -OEChem-09292011113D

 99104  0     1  0  0  0  0  0999 V2000
    3.7354   -1.4084    0.0205 O   0  0  0  0  0  0  0  0  0  0  0  0
    1.2703   -3.1462    2.0288 O   0  0  0  0  0  0  0  0  0  0  0  0
   -6.3243    2.1771   -2.7866 O   0  0  0  0  0  0  0  0  0  0  0  0
   -4.6076    2.8899   -1.4673 O   0  0  0  0  0  0  0  0  0  0  0  0
    5.2465   -2.3197    1.5115 O   0  0  0  0  0  0  0  0  0  0  0  0
   10.4601    4.0562   -0.5008 O   0  0  0  0  0  0  0  0  0  0  0  0
   -2.1649   -0.6449   -1.0688 C   0  0  2  0  0  0  0  0  0  0  0  0
   -1.1569   -0.4082    0.1199 C   0  0  1  0  0  0  0  0  0  0  0  0
    0.3812   -0.7793   -0.1045 C   0  0  2  0  0  0  0  0  0  0  0  0
   -3.6897   -0.5965   -0.4625 C   0  0  1  0  0  0  0  0  0  0  0  0
    0.4543   -2.1908   -0.7785 C   0  0  1  0  0  0  0  0  0  0  0  0
   -1.8656   -2.0053   -1.7532 C   0  0  0  0  0  0  0  0  0  0  0  0
   -3.8846    0.6792    0.3906 C   0  0  0  0  0  0  0  0  0  0  0  0
   -0.3889   -2.2387   -2.0691 C   0  0  0  0  0  0  0  0  0  0  0  0
    1.9001   -2.8104   -0.9267 C   0  0  0  0  0  0  0  0  0  0  0  0
   -5.2980    1.2304    0.6539 C   0  0  1  0  0  0  0  0  0  0  0  0
   -1.3881    0.9893    0.7341 C   0  0  0  0  0  0  0  0  0  0  0  0
    1.0784   -0.8373    1.3053 C   0  0  0  0  0  0  0  0  0  0  0  0
   -4.7309   -0.6714   -1.6224 C   0  0  0  0  0  0  0  0  0  0  0  0
   -6.1511    1.1997   -0.6410 C   0  0  1  0  0  0  0  0  0  0  0  0
   -2.0035    0.4616   -2.1586 C   0  0  0  0  0  0  0  0  0  0  0  0
   -6.1467   -0.2097   -1.2596 C   0  0  0  0  0  0  0  0  0  0  0  0
    2.8049   -2.4518    0.3036 C   0  0  2  0  0  0  0  0  0  0  0  0
    2.0155   -2.0311    1.5435 C   0  0  2  0  0  0  0  0  0  0  0  0
   -2.8319    1.3593    0.8890 C   0  0  0  0  0  0  0  0  0  0  0  0
    1.1376    0.2895   -0.9319 C   0  0  0  0  0  0  0  0  0  0  0  0
   -3.9732   -1.8105    0.4714 C   0  0  0  0  0  0  0  0  0  0  0  0
   -6.0237    0.5862    1.8870 C   0  0  2  0  0  0  0  0  0  0  0  0
   -7.5884    1.6942   -0.3886 C   0  0  0  0  0  0  0  0  0  0  0  0
   -7.4384    1.1979    2.0793 C   0  0  1  0  0  0  0  0  0  0  0  0
    2.5855   -2.4414   -2.2620 C   0  0  0  0  0  0  0  0  0  0  0  0
    1.7491   -4.3611   -0.9502 C   0  0  0  0  0  0  0  0  0  0  0  0
   -8.2660    1.0323    0.7998 C   0  0  0  0  0  0  0  0  0  0  0  0
   -5.5881    2.1833   -1.6486 C   0  0  0  0  0  0  0  0  0  0  0  0
   -5.1834    0.7165    3.1678 C   0  0  0  0  0  0  0  0  0  0  0  0
   -8.2109    0.5754    3.2484 C   0  0  0  0  0  0  0  0  0  0  0  0
    4.9152   -1.4711    0.6989 C   0  0  0  0  0  0  0  0  0  0  0  0
    5.7401   -0.3157    0.2786 C   0  0  0  0  0  0  0  0  0  0  0  0
    6.9601   -0.1471    0.8084 C   0  0  0  0  0  0  0  0  0  0  0  0
    7.8769    0.9540    0.4649 C   0  0  0  0  0  0  0  0  0  0  0  0
    7.3806    2.1174   -0.1235 C   0  0  0  0  0  0  0  0  0  0  0  0
    9.2413    0.8332    0.7283 C   0  0  0  0  0  0  0  0  0  0  0  0
    8.2488    3.1598   -0.4480 C   0  0  0  0  0  0  0  0  0  0  0  0
   10.1095    1.8756    0.4035 C   0  0  0  0  0  0  0  0  0  0  0  0
    9.6132    3.0389   -0.1847 C   0  0  0  0  0  0  0  0  0  0  0  0
   -1.4658   -1.1232    0.8942 H   0  0  0  0  0  0  0  0  0  0  0  0
   -0.0732   -2.8612   -0.0816 H   0  0  0  0  0  0  0  0  0  0  0  0
   -2.4467   -2.1038   -2.6782 H   0  0  0  0  0  0  0  0  0  0  0  0
   -2.1710   -2.8399   -1.1181 H   0  0  0  0  0  0  0  0  0  0  0  0
   -0.3098   -3.2252   -2.5385 H   0  0  0  0  0  0  0  0  0  0  0  0
   -0.0380   -1.5198   -2.8148 H   0  0  0  0  0  0  0  0  0  0  0  0
   -5.1876    2.2936    0.9240 H   0  0  0  0  0  0  0  0  0  0  0  0
   -0.9316    1.7744    0.1250 H   0  0  0  0  0  0  0  0  0  0  0  0
   -0.9172    1.0433    1.7218 H   0  0  0  0  0  0  0  0  0  0  0  0
    0.3238   -0.8515    2.1013 H   0  0  0  0  0  0  0  0  0  0  0  0
    1.6480    0.0883    1.4634 H   0  0  0  0  0  0  0  0  0  0  0  0
   -4.7872   -1.6983   -2.0060 H   0  0  0  0  0  0  0  0  0  0  0  0
   -4.4224   -0.0640   -2.4755 H   0  0  0  0  0  0  0  0  0  0  0  0
   -2.4090    1.4271   -1.8482 H   0  0  0  0  0  0  0  0  0  0  0  0
   -2.4986    0.1851   -3.0953 H   0  0  0  0  0  0  0  0  0  0  0  0
   -0.9671    0.6366   -2.4334 H   0  0  0  0  0  0  0  0  0  0  0  0
   -6.7617   -0.2421   -2.1683 H   0  0  0  0  0  0  0  0  0  0  0  0
   -6.6004   -0.9344   -0.5750 H   0  0  0  0  0  0  0  0  0  0  0  0
    3.3681   -3.3615    0.5541 H   0  0  0  0  0  0  0  0  0  0  0  0
    2.7047   -1.7547    2.3503 H   0  0  0  0  0  0  0  0  0  0  0  0
   -3.0093    2.2679    1.4609 H   0  0  0  0  0  0  0  0  0  0  0  0
    0.9292    0.2389   -1.9998 H   0  0  0  0  0  0  0  0  0  0  0  0
    2.2201    0.1881   -0.8385 H   0  0  0  0  0  0  0  0  0  0  0  0
    0.9258    1.3068   -0.5956 H   0  0  0  0  0  0  0  0  0  0  0  0
   -3.8159   -2.7698   -0.0265 H   0  0  0  0  0  0  0  0  0  0  0  0
   -5.0147   -1.8478    0.7937 H   0  0  0  0  0  0  0  0  0  0  0  0
   -3.3675   -1.7961    1.3820 H   0  0  0  0  0  0  0  0  0  0  0  0
   -6.1682   -0.4824    1.7096 H   0  0  0  0  0  0  0  0  0  0  0  0
   -8.2190    1.5348   -1.2732 H   0  0  0  0  0  0  0  0  0  0  0  0
   -7.5827    2.7803   -0.2178 H   0  0  0  0  0  0  0  0  0  0  0  0
   -7.3327    2.2715    2.2870 H   0  0  0  0  0  0  0  0  0  0  0  0
    3.5926   -2.8731   -2.3103 H   0  0  0  0  0  0  0  0  0  0  0  0
    2.6899   -1.3633   -2.3975 H   0  0  0  0  0  0  0  0  0  0  0  0
    2.0348   -2.8293   -3.1255 H   0  0  0  0  0  0  0  0  0  0  0  0
    2.7263   -4.8507   -1.0399 H   0  0  0  0  0  0  0  0  0  0  0  0
    1.1458   -4.7005   -1.7982 H   0  0  0  0  0  0  0  0  0  0  0  0
    1.2753   -4.7384   -0.0382 H   0  0  0  0  0  0  0  0  0  0  0  0
   -9.2559    1.4857    0.9354 H   0  0  0  0  0  0  0  0  0  0  0  0
   -8.4375   -0.0309    0.5925 H   0  0  0  0  0  0  0  0  0  0  0  0
   -5.0238    1.7676    3.4298 H   0  0  0  0  0  0  0  0  0  0  0  0
   -4.2071    0.2352    3.0606 H   0  0  0  0  0  0  0  0  0  0  0  0
   -5.6640    0.2228    4.0172 H   0  0  0  0  0  0  0  0  0  0  0  0
    0.8310   -2.8735    2.8522 H   0  0  0  0  0  0  0  0  0  0  0  0
   -8.2472   -0.5160    3.1645 H   0  0  0  0  0  0  0  0  0  0  0  0
   -9.2416    0.9462    3.2758 H   0  0  0  0  0  0  0  0  0  0  0  0
   -7.7585    0.8332    4.2105 H   0  0  0  0  0  0  0  0  0  0  0  0
   -5.9752    2.8076   -3.4519 H   0  0  0  0  0  0  0  0  0  0  0  0
    5.3177    0.3450   -0.4696 H   0  0  0  0  0  0  0  0  0  0  0  0
    7.3425   -0.8578    1.5376 H   0  0  0  0  0  0  0  0  0  0  0  0
    6.3242    2.2639   -0.3284 H   0  0  0  0  0  0  0  0  0  0  0  0
    9.6461   -0.0667    1.1852 H   0  0  0  0  0  0  0  0  0  0  0  0
    7.8495    4.0631   -0.9017 H   0  0  0  0  0  0  0  0  0  0  0  0
   11.1715    1.7756    0.6110 H   0  0  0  0  0  0  0  0  0  0  0  0
    9.9475    4.7809   -0.8987 H   0  0  0  0  0  0  0  0  0  0  0  0
  1 23  1  0  0  0  0
  1 37  1  0  0  0  0
  2 24  1  0  0  0  0
  2 88  1  0  0  0  0
  3 34  1  0  0  0  0
  3 92  1  0  0  0  0
  4 34  2  0  0  0  0
  5 37  2  0  0  0  0
  6 45  1  0  0  0  0
  6 99  1  0  0  0  0
  7  8  1  0  0  0  0
  7 10  1  0  0  0  0
  7 12  1  0  0  0  0
  7 21  1  0  0  0  0
  8  9  1  0  0  0  0
  8 17  1  0  0  0  0
  8 46  1  0  0  0  0
  9 11  1  0  0  0  0
  9 18  1  0  0  0  0
  9 26  1  0  0  0  0
 10 13  1  0  0  0  0
 10 19  1  0  0  0  0
 10 27  1  0  0  0  0
 11 14  1  0  0  0  0
 11 15  1  0  0  0  0
 11 47  1  0  0  0  0
 12 14  1  0  0  0  0
 12 48  1  0  0  0  0
 12 49  1  0  0  0  0
 13 16  1  0  0  0  0
 13 25  2  0  0  0  0
 14 50  1  0  0  0  0
 14 51  1  0  0  0  0
 15 23  1  0  0  0  0
 15 31  1  0  0  0  0
 15 32  1  0  0  0  0
 16 20  1  0  0  0  0
 16 28  1  0  0  0  0
 16 52  1  0  0  0  0
 17 25  1  0  0  0  0
 17 53  1  0  0  0  0
 17 54  1  0  0  0  0
 18 24  1  0  0  0  0
 18 55  1  0  0  0  0
 18 56  1  0  0  0  0
 19 22  1  0  0  0  0
 19 57  1  0  0  0  0
 19 58  1  0  0  0  0
 20 22  1  0  0  0  0
 20 29  1  0  0  0  0
 20 34  1  0  0  0  0
 21 59  1  0  0  0  0
 21 60  1  0  0  0  0
 21 61  1  0  0  0  0
 22 62  1  0  0  0  0
 22 63  1  0  0  0  0
 23 24  1  0  0  0  0
 23 64  1  0  0  0  0
 24 65  1  0  0  0  0
 25 66  1  0  0  0  0
 26 67  1  0  0  0  0
 26 68  1  0  0  0  0
 26 69  1  0  0  0  0
 27 70  1  0  0  0  0
 27 71  1  0  0  0  0
 27 72  1  0  0  0  0
 28 30  1  0  0  0  0
 28 35  1  0  0  0  0
 28 73  1  0  0  0  0
 29 33  1  0  0  0  0
 29 74  1  0  0  0  0
 29 75  1  0  0  0  0
 30 33  1  0  0  0  0
 30 36  1  0  0  0  0
 30 76  1  0  0  0  0
 31 77  1  0  0  0  0
 31 78  1  0  0  0  0
 31 79  1  0  0  0  0
 32 80  1  0  0  0  0
 32 81  1  0  0  0  0
 32 82  1  0  0  0  0
 33 83  1  0  0  0  0
 33 84  1  0  0  0  0
 35 85  1  0  0  0  0
 35 86  1  0  0  0  0
 35 87  1  0  0  0  0
 36 89  1  0  0  0  0
 36 90  1  0  0  0  0
 36 91  1  0  0  0  0
 37 38  1  0  0  0  0
 38 39  2  0  0  0  0
 38 93  1  0  0  0  0
 39 40  1  0  0  0  0
 39 94  1  0  0  0  0
 40 41  2  0  0  0  0
 40 42  1  0  0  0  0
 41 43  1  0  0  0  0
 41 95  1  0  0  0  0
 42 44  2  0  0  0  0
 42 96  1  0  0  0  0
 43 45  2  0  0  0  0
 43 97  1  0  0  0  0
 44 45  1  0  0  0  0
 44 98  1  0  0  0  0
M  END
> <PUBCHEM_COMPOUND_CID>
11700083

> <PUBCHEM_CONFORMER_RMSD>
1

> <PUBCHEM_CONFORMER_DIVERSEORDER>
1
52
39
28
33
37
4
59
9
14
54
43
23
12
19
47
18
57
31
42
35
40
51
2
21
32
13
20
58
11
30
45
50
22
41
44
55
38
36
6
26
29
34
15
49
56
5
16
27
24
46
10
17
8
53
48
25
7
3

> <PUBCHEM_MMFF94_PARTIAL_CHARGES>
34
1 -0.43
10 0.14
13 -0.28
16 0.14
17 0.14
2 -0.68
20 0.06
23 0.28
24 0.28
25 -0.29
3 -0.65
34 0.66
37 0.71
38 -0.14
39 -0.18
4 -0.57
40 0.03
41 -0.15
42 -0.15
43 -0.15
44 -0.15
45 0.08
5 -0.57
6 -0.53
66 0.15
88 0.4
92 0.5
93 0.15
94 0.15
95 0.15
96 0.15
97 0.15
98 0.15
99 0.45

> <PUBCHEM_EFFECTIVE_ROTOR_COUNT>
7.6

> <PUBCHEM_PHARMACOPHORE_FEATURES>
14
1 2 acceptor
1 2 donor
1 3 acceptor
1 4 acceptor
1 5 acceptor
1 6 donor
3 15 31 32 hydrophobe
3 3 4 34 anion
6 10 13 16 19 20 22 rings
6 16 20 28 29 30 33 rings
6 40 41 42 43 44 45 rings
6 7 8 10 13 17 25 rings
6 7 8 9 11 12 14 rings
6 9 11 15 18 23 24 rings

> <PUBCHEM_HEAVY_ATOM_COUNT>
45

> <PUBCHEM_ATOM_DEF_STEREO_COUNT>
9

> <PUBCHEM_ATOM_UDEF_STEREO_COUNT>
2

> <PUBCHEM_BOND_DEF_STEREO_COUNT>
1

> <PUBCHEM_BOND_UDEF_STEREO_COUNT>
0

> <PUBCHEM_ISOTOPIC_ATOM_COUNT>
0

> <PUBCHEM_COMPONENT_COUNT>
1

> <PUBCHEM_CACTVS_TAUTO_COUNT>
2

> <PUBCHEM_CONFORMER_ID>
00B2877300000001

> <PUBCHEM_MMFF94_ENERGY>
187.9531

> <PUBCHEM_FEATURE_SELFOVERLAP>
71.187

> <PUBCHEM_SHAPE_FINGERPRINT>
10 15 18187646877354390003
10920273 25 18131081450008532504
10930396 42 16660359303063197181
11135926 11 18344146994882242537
11273773 46 10807934872924308548
11456790 92 17895182295948803376
11578821 258 18336541638219281053
12013929 112 15338845239694812432
12098696 120 18408324389785318416
12120059 9 14851871561127406379
12539765 74 18343022182150869494
13383665 225 16916799439581357921
13627175 23 18343585148924898424
13782708 43 9583221868999157423
13811026 1 15936412247179675915
14394314 77 18336542824426261780
14664723 55 18131078126020096236
15064981 194 17915738876472503014
15131766 46 18336530708349185262
15152005 77 8285938856512920832
15685185 35 18339643464412029792
15840311 113 18409168775664885454
16991971 28 9511464420804218124
16992610 120 18060146466438705708
16993427 108 10953732318834371174
17899979 19 18409445895192037652
18393751 57 17749388170391098426
19302320 297 17894911876503099684
212700 22 10231763280323002948
21781055 127 17632573817874392874
21814621 53 17459750307301302035
23522609 53 17131004048584015667
23576562 1 16127508527570364752
24771293 8 18343302574051594092
3383291 50 11530482203630289688
3711267 37 18412832369762762520
3986486 107 15267066934879759592
4112364 45 18334304188064463572
4169191 19 18342172258717852284
4258327 124 18272083907232587134
4403749 210 18261393381636013995
4516262 110 18272650117018499142
4616759 239 16588030095779150545
5080951 261 16008742537925116867
5109719 28 18408889516643333724
5776283 40 17917424376395180056
5937810 71 18272088335781706108
6201320 82 18269843025348172612
6703917 75 17561365088881566023
9962374 69 12829498068808268882

> <PUBCHEM_SHAPE_MULTIPOLES>
890.86
30.36
3.97
2.41
55.04
1.2
-0.56
-37.79
-5.81
7.66
1.19
-5.35
-0.12
-1.82

> <PUBCHEM_SHAPE_SELFOVERLAP>
1908.252

> <PUBCHEM_SHAPE_VOLUME>
486

> <PUBCHEM_COORDINATE_TYPE>
2
5
10

$$$$
