44583704
  -OEChem-09292011433D

 42 43  0     1  0  0  0  0  0999 V2000
    4.1500   -1.6664   -0.2958 Br  0  0  0  0  0  0  0  0  0  0  0  0
   -3.3456   -2.3129   -0.1395 Br  0  0  0  0  0  0  0  0  0  0  0  0
   -2.8075    1.9784    1.0815 Cl  0  0  0  0  0  0  0  0  0  0  0  0
    3.5256    1.3820   -0.0053 O   0  0  0  0  0  0  0  0  0  0  0  0
    0.0379   -0.0666    0.1572 C   0  0  2  0  0  0  0  0  0  0  0  0
    1.3917   -0.9041    0.5469 C   0  0  0  0  0  0  0  0  0  0  0  0
   -1.0508   -0.1575    1.3000 C   0  0  0  0  0  0  0  0  0  0  0  0
   -0.6063   -0.6900   -1.1267 C   0  0  0  0  0  0  0  0  0  0  0  0
    2.4454   -0.7220   -0.6131 C   0  0  1  0  0  0  0  0  0  0  0  0
    0.5346    1.3809   -0.1298 C   0  0  0  0  0  0  0  0  0  0  0  0
   -2.5262    0.2080    0.9657 C   0  0  2  0  0  0  0  0  0  0  0  0
   -1.9885   -0.1483   -1.4914 C   0  0  0  0  0  0  0  0  0  0  0  0
   -3.0251   -0.3472   -0.3828 C   0  0  1  0  0  0  0  0  0  0  0  0
    2.7668    0.7241   -1.0209 C   0  0  1  0  0  0  0  0  0  0  0  0
    1.4981    1.5353   -1.2921 C   0  0  0  0  0  0  0  0  0  0  0  0
    1.9391   -0.4235    1.9193 C   0  0  0  0  0  0  0  0  0  0  0  0
    1.1155   -2.4289    0.7102 C   0  0  0  0  0  0  0  0  0  0  0  0
   -4.3939    0.1966   -0.8293 C   0  0  0  0  0  0  0  0  0  0  0  0
    0.3392    2.4619    0.6458 C   0  0  0  0  0  0  0  0  0  0  0  0
   -0.7343    0.4006    2.1890 H   0  0  0  0  0  0  0  0  0  0  0  0
   -1.0943   -1.1951    1.6438 H   0  0  0  0  0  0  0  0  0  0  0  0
    0.0335   -0.5764   -2.0060 H   0  0  0  0  0  0  0  0  0  0  0  0
   -0.6979   -1.7723   -1.0053 H   0  0  0  0  0  0  0  0  0  0  0  0
    2.0712   -1.2407   -1.5040 H   0  0  0  0  0  0  0  0  0  0  0  0
   -3.1480   -0.1925    1.7756 H   0  0  0  0  0  0  0  0  0  0  0  0
   -2.3217   -0.6433   -2.4131 H   0  0  0  0  0  0  0  0  0  0  0  0
   -1.9016    0.9182   -1.7347 H   0  0  0  0  0  0  0  0  0  0  0  0
    3.3891    0.7236   -1.9243 H   0  0  0  0  0  0  0  0  0  0  0  0
    1.7691    2.5893   -1.4372 H   0  0  0  0  0  0  0  0  0  0  0  0
    1.0262    1.2244   -2.2286 H   0  0  0  0  0  0  0  0  0  0  0  0
    2.8695   -0.9320    2.1908 H   0  0  0  0  0  0  0  0  0  0  0  0
    2.1383    0.6496    1.9495 H   0  0  0  0  0  0  0  0  0  0  0  0
    1.2303   -0.6444    2.7249 H   0  0  0  0  0  0  0  0  0  0  0  0
    0.2796   -2.6395    1.3803 H   0  0  0  0  0  0  0  0  0  0  0  0
    1.9769   -2.9480    1.1456 H   0  0  0  0  0  0  0  0  0  0  0  0
    0.9107   -2.9156   -0.2483 H   0  0  0  0  0  0  0  0  0  0  0  0
   -4.3399    1.2517   -1.1179 H   0  0  0  0  0  0  0  0  0  0  0  0
   -4.7754   -0.3446   -1.7039 H   0  0  0  0  0  0  0  0  0  0  0  0
   -5.1414    0.1007   -0.0332 H   0  0  0  0  0  0  0  0  0  0  0  0
   -0.2002    2.4305    1.5814 H   0  0  0  0  0  0  0  0  0  0  0  0
    0.7819    3.4217    0.3963 H   0  0  0  0  0  0  0  0  0  0  0  0
    3.7366    2.2752   -0.3266 H   0  0  0  0  0  0  0  0  0  0  0  0
  1  9  1  0  0  0  0
  2 13  1  0  0  0  0
  3 11  1  0  0  0  0
  4 14  1  0  0  0  0
  4 42  1  0  0  0  0
  5  6  1  0  0  0  0
  5  7  1  0  0  0  0
  5  8  1  0  0  0  0
  5 10  1  0  0  0  0
  6  9  1  0  0  0  0
  6 16  1  0  0  0  0
  6 17  1  0  0  0  0
  7 11  1  0  0  0  0
  7 20  1  0  0  0  0
  7 21  1  0  0  0  0
  8 12  1  0  0  0  0
  8 22  1  0  0  0  0
  8 23  1  0  0  0  0
  9 14  1  0  0  0  0
  9 24  1  0  0  0  0
 10 15  1  0  0  0  0
 10 19  2  0  0  0  0
 11 13  1  0  0  0  0
 11 25  1  0  0  0  0
 12 13  1  0  0  0  0
 12 26  1  0  0  0  0
 12 27  1  0  0  0  0
 13 18  1  0  0  0  0
 14 15  1  0  0  0  0
 14 28  1  0  0  0  0
 15 29  1  0  0  0  0
 15 30  1  0  0  0  0
 16 31  1  0  0  0  0
 16 32  1  0  0  0  0
 16 33  1  0  0  0  0
 17 34  1  0  0  0  0
 17 35  1  0  0  0  0
 17 36  1  0  0  0  0
 18 37  1  0  0  0  0
 18 38  1  0  0  0  0
 18 39  1  0  0  0  0
 19 40  1  0  0  0  0
 19 41  1  0  0  0  0
M  END
> <PUBCHEM_COMPOUND_CID>
44583704

> <PUBCHEM_CONFORMER_RMSD>
0.6

> <PUBCHEM_CONFORMER_DIVERSEORDER>
1
2

> <PUBCHEM_MMFF94_PARTIAL_CHARGES>
15
1 -0.23
10 -0.28
11 0.29
13 0.23
14 0.28
15 0.14
19 -0.3
2 -0.23
3 -0.29
4 -0.68
40 0.15
41 0.15
42 0.4
5 0.14
9 0.23

> <PUBCHEM_EFFECTIVE_ROTOR_COUNT>
1.8

> <PUBCHEM_PHARMACOPHORE_FEATURES>
8
1 1 hydrophobe
1 2 hydrophobe
1 4 acceptor
1 4 donor
3 2 13 18 hydrophobe
3 6 16 17 hydrophobe
6 5 6 9 10 14 15 rings
6 5 7 8 11 12 13 rings

> <PUBCHEM_HEAVY_ATOM_COUNT>
19

> <PUBCHEM_ATOM_DEF_STEREO_COUNT>
5

> <PUBCHEM_ATOM_UDEF_STEREO_COUNT>
0

> <PUBCHEM_BOND_DEF_STEREO_COUNT>
0

> <PUBCHEM_BOND_UDEF_STEREO_COUNT>
0

> <PUBCHEM_ISOTOPIC_ATOM_COUNT>
0

> <PUBCHEM_COMPONENT_COUNT>
1

> <PUBCHEM_CACTVS_TAUTO_COUNT>
1

> <PUBCHEM_CONFORMER_ID>
02A84B1800000001

> <PUBCHEM_MMFF94_ENERGY>
78.7401

> <PUBCHEM_FEATURE_SELFOVERLAP>
41.536

> <PUBCHEM_SHAPE_FINGERPRINT>
10062212 137 18338805519764231483
10863032 1 18341901809096068846
11578080 2 17914587528426068032
12236239 1 18201439151244867031
12596599 1 18340499897237323583
12654215 9 17748825207146125596
13538477 17 18343300396666562087
13581323 91 16630807703157210679
14115302 16 18341040878997216327
14178342 30 18338503162957572307
14993402 34 18202286909106511693
15775835 57 18040712606221780751
15848702 151 18270124500614189166
16945 1 16588029034499461764
18186145 218 17967256377289623934
19422 9 18341620312518064206
19862831 5 18114185215663286638
200 152 18408884001472776639
20559304 39 18342733027191663169
21501502 16 17749940163550326203
22112679 90 18202006482102015896
23402539 116 18337675205348725598
23419403 2 15534093413535781874
23493267 7 18059306378766250303
23557571 272 17774720849189978192
23559900 14 18343860030852437842
238 59 17752201957610309287
2748010 2 16607185013941851434
3060560 45 18259698991272978926
3286 77 18263923417856804175
3323516 105 18263084469036653431
34934 24 18341622481508651977
74978 22 18412824711713890373
77492 1 18202008715410864413
7832392 63 18341060605281054929
90525 40 18059583464212460319
9981440 41 17620467352221253080

> <PUBCHEM_SHAPE_MULTIPOLES>
398.9
6.69
2.43
1.47
0.82
0.01
-0.17
-1.78
1.1
-0.01
-0.33
0.02
0.12
-0.76

> <PUBCHEM_SHAPE_SELFOVERLAP>
774.919

> <PUBCHEM_SHAPE_VOLUME>
249.1

> <PUBCHEM_COORDINATE_TYPE>
2
5
10

$$$$
