5318606
  -OEChem-09302002503D

 54 57  0     1  0  0  0  0  0999 V2000
    0.5021    2.3397   -0.0493 O   0  0  0  0  0  0  0  0  0  0  0  0
    0.6461    0.4342   -1.3880 O   0  0  0  0  0  0  0  0  0  0  0  0
    4.3347    3.4613   -1.0085 O   0  0  0  0  0  0  0  0  0  0  0  0
    3.0285    4.6274    1.2915 O   0  0  0  0  0  0  0  0  0  0  0  0
    3.4660    0.6712   -1.3838 O   0  0  0  0  0  0  0  0  0  0  0  0
   -1.0174    3.5464    1.8978 O   0  0  0  0  0  0  0  0  0  0  0  0
   -1.7312   -1.8027    0.3245 O   0  0  0  0  0  0  0  0  0  0  0  0
   -1.7780    1.7779   -1.6199 O   0  0  0  0  0  0  0  0  0  0  0  0
   -4.3520    1.9762   -1.2051 O   0  0  0  0  0  0  0  0  0  0  0  0
   -6.4016   -1.6021    1.1487 O   0  0  0  0  0  0  0  0  0  0  0  0
    2.4137   -4.8121   -1.6293 O   0  0  0  0  0  0  0  0  0  0  0  0
    3.2734   -2.5311    2.4930 O   0  0  0  0  0  0  0  0  0  0  0  0
    3.9650   -4.4691    0.6390 O   0  0  0  0  0  0  0  0  0  0  0  0
    3.3317    2.7928   -0.2420 C   0  0  1  0  0  0  0  0  0  0  0  0
    2.3670    3.8487    0.2979 C   0  0  1  0  0  0  0  0  0  0  0  0
    2.6049    1.7803   -1.1274 C   0  0  2  0  0  0  0  0  0  0  0  0
    1.1294    3.1903    0.9121 C   0  0  1  0  0  0  0  0  0  0  0  0
    1.3387    1.2570   -0.4497 C   0  0  1  0  0  0  0  0  0  0  0  0
    0.0988    4.2254    1.3521 C   0  0  0  0  0  0  0  0  0  0  0  0
   -0.5177   -0.0748   -0.8535 C   0  0  0  0  0  0  0  0  0  0  0  0
   -0.5729   -1.2472   -0.1957 C   0  0  0  0  0  0  0  0  0  0  0  0
   -1.7665    0.7047   -1.0321 C   0  0  0  0  0  0  0  0  0  0  0  0
   -2.9899    0.1163   -0.4658 C   0  0  0  0  0  0  0  0  0  0  0  0
   -2.9074   -1.1124    0.1855 C   0  0  0  0  0  0  0  0  0  0  0  0
    0.6165   -2.0900    0.0212 C   0  0  0  0  0  0  0  0  0  0  0  0
   -4.2173    0.7743   -0.5784 C   0  0  0  0  0  0  0  0  0  0  0  0
   -4.0539   -1.6924    0.7290 C   0  0  0  0  0  0  0  0  0  0  0  0
    1.3959   -1.9148    1.1650 C   0  0  0  0  0  0  0  0  0  0  0  0
    0.9626   -3.0648   -0.9151 C   0  0  0  0  0  0  0  0  0  0  0  0
   -5.3624    0.1925   -0.0334 C   0  0  0  0  0  0  0  0  0  0  0  0
   -5.2812   -1.0385    0.6190 C   0  0  0  0  0  0  0  0  0  0  0  0
    2.0872   -3.8635   -0.7076 C   0  0  0  0  0  0  0  0  0  0  0  0
    2.5208   -2.7132    1.3723 C   0  0  0  0  0  0  0  0  0  0  0  0
    2.8664   -3.6876    0.4360 C   0  0  0  0  0  0  0  0  0  0  0  0
    3.8572    2.2887    0.5776 H   0  0  0  0  0  0  0  0  0  0  0  0
    2.0795    4.5236   -0.5189 H   0  0  0  0  0  0  0  0  0  0  0  0
    2.3645    2.2304   -2.0986 H   0  0  0  0  0  0  0  0  0  0  0  0
    1.4003    2.5873    1.7894 H   0  0  0  0  0  0  0  0  0  0  0  0
    1.6148    0.6639    0.4285 H   0  0  0  0  0  0  0  0  0  0  0  0
   -0.2548    4.8242    0.5062 H   0  0  0  0  0  0  0  0  0  0  0  0
    0.4927    4.8961    2.1202 H   0  0  0  0  0  0  0  0  0  0  0  0
    3.8991    3.9040   -1.7567 H   0  0  0  0  0  0  0  0  0  0  0  0
    2.4990    5.4279    1.4438 H   0  0  0  0  0  0  0  0  0  0  0  0
    2.9666    0.0323   -1.9208 H   0  0  0  0  0  0  0  0  0  0  0  0
   -1.3630    2.9494    1.2122 H   0  0  0  0  0  0  0  0  0  0  0  0
   -3.9860   -2.6517    1.2362 H   0  0  0  0  0  0  0  0  0  0  0  0
    1.1221   -1.1634    1.9027 H   0  0  0  0  0  0  0  0  0  0  0  0
    0.3602   -3.2089   -1.8094 H   0  0  0  0  0  0  0  0  0  0  0  0
   -6.3217    0.6980   -0.1164 H   0  0  0  0  0  0  0  0  0  0  0  0
   -3.4944    2.2871   -1.5330 H   0  0  0  0  0  0  0  0  0  0  0  0
   -6.1630   -2.4499    1.5615 H   0  0  0  0  0  0  0  0  0  0  0  0
    3.2172   -5.2695   -1.3260 H   0  0  0  0  0  0  0  0  0  0  0  0
    2.8855   -1.8135    3.0228 H   0  0  0  0  0  0  0  0  0  0  0  0
    4.3783   -4.2055    1.4794 H   0  0  0  0  0  0  0  0  0  0  0  0
  1 17  1  0  0  0  0
  1 18  1  0  0  0  0
  2 18  1  0  0  0  0
  2 20  1  0  0  0  0
  3 14  1  0  0  0  0
  3 42  1  0  0  0  0
  4 15  1  0  0  0  0
  4 43  1  0  0  0  0
  5 16  1  0  0  0  0
  5 44  1  0  0  0  0
  6 19  1  0  0  0  0
  6 45  1  0  0  0  0
  7 21  1  0  0  0  0
  7 24  1  0  0  0  0
  8 22  2  0  0  0  0
  9 26  1  0  0  0  0
  9 50  1  0  0  0  0
 10 31  1  0  0  0  0
 10 51  1  0  0  0  0
 11 32  1  0  0  0  0
 11 52  1  0  0  0  0
 12 33  1  0  0  0  0
 12 53  1  0  0  0  0
 13 34  1  0  0  0  0
 13 54  1  0  0  0  0
 14 15  1  0  0  0  0
 14 16  1  0  0  0  0
 14 35  1  0  0  0  0
 15 17  1  0  0  0  0
 15 36  1  0  0  0  0
 16 18  1  0  0  0  0
 16 37  1  0  0  0  0
 17 19  1  0  0  0  0
 17 38  1  0  0  0  0
 18 39  1  0  0  0  0
 19 40  1  0  0  0  0
 19 41  1  0  0  0  0
 20 21  2  0  0  0  0
 20 22  1  0  0  0  0
 21 25  1  0  0  0  0
 22 23  1  0  0  0  0
 23 24  1  0  0  0  0
 23 26  2  0  0  0  0
 24 27  2  0  0  0  0
 25 28  2  0  0  0  0
 25 29  1  0  0  0  0
 26 30  1  0  0  0  0
 27 31  1  0  0  0  0
 27 46  1  0  0  0  0
 28 33  1  0  0  0  0
 28 47  1  0  0  0  0
 29 32  2  0  0  0  0
 29 48  1  0  0  0  0
 30 31  2  0  0  0  0
 30 49  1  0  0  0  0
 32 34  1  0  0  0  0
 33 34  2  0  0  0  0
M  END
> <PUBCHEM_COMPOUND_CID>
5318606

> <PUBCHEM_CONFORMER_RMSD>
0.8

> <PUBCHEM_CONFORMER_DIVERSEORDER>
1
60
38
24
56
52
51
59
46
29
45
4
3
64
48
44
47
25
18
55
31
39
65
17
58
53
6
57
37
7
27
2
43
5
12
49
10
54
61
62
34
14
42
32
16
41
22
15
23
20
36
19
30
50
33
13
40
35
26
28
63
8
21
11
9

> <PUBCHEM_MMFF94_PARTIAL_CHARGES>
47
1 -0.56
10 -0.53
11 -0.53
12 -0.53
13 -0.53
14 0.28
15 0.28
16 0.28
17 0.28
18 0.56
19 0.28
2 -0.36
20 0.09
21 0.05
22 0.47
23 0.09
24 0.08
25 0.03
26 0.08
27 -0.15
28 -0.15
29 -0.15
3 -0.68
30 -0.15
31 0.08
32 0.08
33 0.08
34 0.08
4 -0.68
42 0.4
43 0.4
44 0.4
45 0.4
46 0.15
47 0.15
48 0.15
49 0.15
5 -0.68
50 0.45
51 0.45
52 0.45
53 0.45
54 0.45
6 -0.68
7 -0.16
8 -0.57
9 -0.53

> <PUBCHEM_EFFECTIVE_ROTOR_COUNT>
5.2

> <PUBCHEM_PHARMACOPHORE_FEATURES>
21
1 1 acceptor
1 10 donor
1 11 donor
1 12 donor
1 13 donor
1 2 acceptor
1 3 acceptor
1 3 donor
1 4 acceptor
1 4 donor
1 5 acceptor
1 5 donor
1 6 acceptor
1 6 donor
1 7 acceptor
1 8 acceptor
1 9 donor
6 1 14 15 16 17 18 rings
6 23 24 26 27 30 31 rings
6 25 28 29 32 33 34 rings
6 7 20 21 22 23 24 rings

> <PUBCHEM_HEAVY_ATOM_COUNT>
34

> <PUBCHEM_ATOM_DEF_STEREO_COUNT>
5

> <PUBCHEM_ATOM_UDEF_STEREO_COUNT>
0

> <PUBCHEM_BOND_DEF_STEREO_COUNT>
0

> <PUBCHEM_BOND_UDEF_STEREO_COUNT>
0

> <PUBCHEM_ISOTOPIC_ATOM_COUNT>
0

> <PUBCHEM_COMPONENT_COUNT>
1

> <PUBCHEM_CACTVS_TAUTO_COUNT>
195

> <PUBCHEM_CONFORMER_ID>
005127CE00000001

> <PUBCHEM_MMFF94_ENERGY>
106.9104

> <PUBCHEM_FEATURE_SELFOVERLAP>
106.692

> <PUBCHEM_SHAPE_FINGERPRINT>
10074138 170 17187264207187731553
10165383 225 18119819250810026261
10290309 65 18265325282546048572
11014199 57 17979923713499127946
12156800 1 16199044785951335256
12741549 16 17983838013543507307
12788726 201 17328287061844665859
131258 43 18056773026846376662
13140716 1 18122061167660687910
13540713 4 18040150704984100471
13757389 114 16901896427050079238
14028597 1 18059026058682328824
140371 6 17835520423464790479
14114211 68 18043838538911694821
14955137 171 18339918234612468946
15230672 131 18119247523004008428
15420108 30 18124872610446076935
15927050 60 18194968676320308158
19315092 285 15504320541985725042
20028762 73 17689167020863606039
20600515 1 17683503057999359710
21033648 29 17909552005905287161
21120745 212 17836942100879641742
21133665 82 18189625016103336076
21344244 78 18272080553385440491
21927370 108 17976272235373163578
23557571 272 17833821677800143830
23559900 14 18262792944221637471
3298306 158 18337390551420645036
3411729 13 18260831535346262299
3418910 222 18118687605318674858
5104073 3 18261125054513525947
5265222 85 17972051498598204004
5385378 56 18338245963336160089
6004065 56 18124007089279802111
6442390 28 18048880993878871397
6679774 75 18042670880024361818
6700243 42 17340717122813354622
81228 2 17474376981314710334
9777508 108 17477205397783777684

> <PUBCHEM_SHAPE_MULTIPOLES>
623.4
9.19
7.13
1.57
13.27
0.28
0.33
0.91
1.06
-11.1
1.64
-0.75
-0.02
0.24

> <PUBCHEM_SHAPE_SELFOVERLAP>
1374.654

> <PUBCHEM_SHAPE_VOLUME>
330.8

> <PUBCHEM_COORDINATE_TYPE>
2
5
10

$$$$
