10100394
  -OEChem-09292011093D

 99104  0     1  0  0  0  0  0999 V2000
    3.9660    2.1061    0.0061 O   0  0  0  0  0  0  0  0  0  0  0  0
    3.6154    4.7680   -0.8567 O   0  0  0  0  0  0  0  0  0  0  0  0
   -6.9935   -0.2860    1.5607 O   0  0  0  0  0  0  0  0  0  0  0  0
   -4.9344   -0.6013    2.4860 O   0  0  0  0  0  0  0  0  0  0  0  0
    4.0047    1.2528    2.1526 O   0  0  0  0  0  0  0  0  0  0  0  0
    8.3244   -5.3069   -0.9879 O   0  0  0  0  0  0  0  0  0  0  0  0
   -2.3612    1.6732   -0.0887 C   0  0  2  0  0  0  0  0  0  0  0  0
   -0.8688    1.2518    0.1927 C   0  0  1  0  0  0  0  0  0  0  0  0
    0.1966    2.4209    0.4180 C   0  0  2  0  0  0  0  0  0  0  0  0
   -3.1689    0.3622   -0.6574 C   0  0  1  0  0  0  0  0  0  0  0  0
    0.0330    3.4387   -0.7690 C   0  0  1  0  0  0  0  0  0  0  0  0
   -2.3983    2.8469   -1.1064 C   0  0  0  0  0  0  0  0  0  0  0  0
   -2.9518   -0.8469    0.2802 C   0  0  0  0  0  0  0  0  0  0  0  0
   -1.4111    3.9798   -0.8189 C   0  0  0  0  0  0  0  0  0  0  0  0
    1.1599    4.5287   -0.9161 C   0  0  0  0  0  0  0  0  0  0  0  0
   -3.9584   -2.0119    0.2975 C   0  0  1  0  0  0  0  0  0  0  0  0
   -0.8142    0.1245    1.2468 C   0  0  0  0  0  0  0  0  0  0  0  0
    1.6231    1.8062    0.3231 C   0  0  0  0  0  0  0  0  0  0  0  0
   -4.6841    0.6960   -0.8239 C   0  0  0  0  0  0  0  0  0  0  0  0
   -5.4155   -1.4821    0.2693 C   0  0  1  0  0  0  0  0  0  0  0  0
   -3.0417    2.1835    1.2203 C   0  0  0  0  0  0  0  0  0  0  0  0
   -5.6160   -0.5171   -0.9127 C   0  0  0  0  0  0  0  0  0  0  0  0
    2.5483    3.8174   -0.9255 C   0  0  2  0  0  0  0  0  0  0  0  0
    2.7516    2.8328    0.2260 C   0  0  2  0  0  0  0  0  0  0  0  0
   -1.8988   -0.9009    1.1203 C   0  0  0  0  0  0  0  0  0  0  0  0
    0.0731    3.0888    1.8106 C   0  0  0  0  0  0  0  0  0  0  0  0
   -2.6493   -0.0677   -2.0620 C   0  0  0  0  0  0  0  0  0  0  0  0
   -3.6848   -3.1181   -0.7821 C   0  0  2  0  0  0  0  0  0  0  0  0
   -6.4397   -2.6325    0.2307 C   0  0  0  0  0  0  0  0  0  0  0  0
   -4.7430   -4.2518   -0.6948 C   0  0  1  0  0  0  0  0  0  0  0  0
    0.9994    5.2511   -2.2847 C   0  0  0  0  0  0  0  0  0  0  0  0
    1.1010    5.6367    0.1550 C   0  0  0  0  0  0  0  0  0  0  0  0
   -6.1546   -3.6727   -0.8398 C   0  0  0  0  0  0  0  0  0  0  0  0
   -5.7207   -0.7518    1.5627 C   0  0  0  0  0  0  0  0  0  0  0  0
   -2.2588   -3.6808   -0.6671 C   0  0  0  0  0  0  0  0  0  0  0  0
   -4.5481   -5.3428   -1.7544 C   0  0  0  0  0  0  0  0  0  0  0  0
    4.2838    1.1956    0.9656 C   0  0  0  0  0  0  0  0  0  0  0  0
    5.0415    0.1039    0.3128 C   0  0  0  0  0  0  0  0  0  0  0  0
    5.4663   -0.9352    1.0456 C   0  0  0  0  0  0  0  0  0  0  0  0
    6.2182   -2.0842    0.5111 C   0  0  0  0  0  0  0  0  0  0  0  0
    6.8821   -1.9574   -0.6982 C   0  0  0  0  0  0  0  0  0  0  0  0
    6.2459   -3.2692    1.2283 C   0  0  0  0  0  0  0  0  0  0  0  0
    7.5932   -3.0456   -1.2042 C   0  0  0  0  0  0  0  0  0  0  0  0
    6.9572   -4.3573    0.7224 C   0  0  0  0  0  0  0  0  0  0  0  0
    7.6308   -4.2455   -0.4939 C   0  0  0  0  0  0  0  0  0  0  0  0
   -0.5253    0.7825   -0.7393 H   0  0  0  0  0  0  0  0  0  0  0  0
    0.1426    2.8297   -1.6826 H   0  0  0  0  0  0  0  0  0  0  0  0
   -3.4100    3.2662   -1.1680 H   0  0  0  0  0  0  0  0  0  0  0  0
   -2.1599    2.4972   -2.1133 H   0  0  0  0  0  0  0  0  0  0  0  0
   -1.6886    4.5063    0.0976 H   0  0  0  0  0  0  0  0  0  0  0  0
   -1.5232    4.7090   -1.6269 H   0  0  0  0  0  0  0  0  0  0  0  0
   -3.8380   -2.5314    1.2625 H   0  0  0  0  0  0  0  0  0  0  0  0
    0.1449   -0.4000    1.1692 H   0  0  0  0  0  0  0  0  0  0  0  0
   -0.8762    0.5168    2.2645 H   0  0  0  0  0  0  0  0  0  0  0  0
    1.7725    1.1482    1.1853 H   0  0  0  0  0  0  0  0  0  0  0  0
    1.6841    1.1462   -0.5542 H   0  0  0  0  0  0  0  0  0  0  0  0
   -4.8325    1.3148   -1.7183 H   0  0  0  0  0  0  0  0  0  0  0  0
   -5.0540    1.3010    0.0055 H   0  0  0  0  0  0  0  0  0  0  0  0
   -3.2228    1.3863    1.9445 H   0  0  0  0  0  0  0  0  0  0  0  0
   -2.4535    2.9419    1.7311 H   0  0  0  0  0  0  0  0  0  0  0  0
   -4.0007    2.6717    1.0207 H   0  0  0  0  0  0  0  0  0  0  0  0
   -6.6509   -0.1533   -0.9517 H   0  0  0  0  0  0  0  0  0  0  0  0
   -5.4517   -1.0314   -1.8658 H   0  0  0  0  0  0  0  0  0  0  0  0
    2.6759    3.2813   -1.8757 H   0  0  0  0  0  0  0  0  0  0  0  0
    2.8803    3.3919    1.1593 H   0  0  0  0  0  0  0  0  0  0  0  0
   -1.7913   -1.7587    1.7812 H   0  0  0  0  0  0  0  0  0  0  0  0
   -0.6353    3.9182    1.8283 H   0  0  0  0  0  0  0  0  0  0  0  0
    1.0204    3.4992    2.1662 H   0  0  0  0  0  0  0  0  0  0  0  0
   -0.2268    2.3883    2.5914 H   0  0  0  0  0  0  0  0  0  0  0  0
   -1.6157   -0.4252   -2.0403 H   0  0  0  0  0  0  0  0  0  0  0  0
   -2.7154    0.7347   -2.7999 H   0  0  0  0  0  0  0  0  0  0  0  0
   -3.2458   -0.8737   -2.4919 H   0  0  0  0  0  0  0  0  0  0  0  0
   -3.7748   -2.6839   -1.7811 H   0  0  0  0  0  0  0  0  0  0  0  0
   -6.4632   -3.1414    1.2050 H   0  0  0  0  0  0  0  0  0  0  0  0
   -7.4556   -2.2480    0.0706 H   0  0  0  0  0  0  0  0  0  0  0  0
   -4.6649   -4.7306    0.2909 H   0  0  0  0  0  0  0  0  0  0  0  0
    0.1147    5.8949   -2.3099 H   0  0  0  0  0  0  0  0  0  0  0  0
    0.9202    4.5314   -3.1070 H   0  0  0  0  0  0  0  0  0  0  0  0
    1.8614    5.8947   -2.4961 H   0  0  0  0  0  0  0  0  0  0  0  0
    1.4246    5.2950    1.1382 H   0  0  0  0  0  0  0  0  0  0  0  0
    1.7598    6.4735   -0.1075 H   0  0  0  0  0  0  0  0  0  0  0  0
    0.0925    6.0505    0.2530 H   0  0  0  0  0  0  0  0  0  0  0  0
   -6.8971   -4.4758   -0.7538 H   0  0  0  0  0  0  0  0  0  0  0  0
   -6.2857   -3.2343   -1.8365 H   0  0  0  0  0  0  0  0  0  0  0  0
   -2.1016   -4.1624    0.3036 H   0  0  0  0  0  0  0  0  0  0  0  0
   -2.0509   -4.4160   -1.4498 H   0  0  0  0  0  0  0  0  0  0  0  0
   -1.5050   -2.8981   -0.7909 H   0  0  0  0  0  0  0  0  0  0  0  0
    4.4514    4.2723   -0.8920 H   0  0  0  0  0  0  0  0  0  0  0  0
   -4.4923   -4.9139   -2.7605 H   0  0  0  0  0  0  0  0  0  0  0  0
   -3.6363   -5.9193   -1.5733 H   0  0  0  0  0  0  0  0  0  0  0  0
   -5.3797   -6.0558   -1.7371 H   0  0  0  0  0  0  0  0  0  0  0  0
   -7.2103    0.1905    2.3902 H   0  0  0  0  0  0  0  0  0  0  0  0
    5.2003    0.1866   -0.7561 H   0  0  0  0  0  0  0  0  0  0  0  0
    5.2519   -0.9752    2.1113 H   0  0  0  0  0  0  0  0  0  0  0  0
    6.8984   -1.0376   -1.2740 H   0  0  0  0  0  0  0  0  0  0  0  0
    5.7249   -3.3724    2.1764 H   0  0  0  0  0  0  0  0  0  0  0  0
    8.1200   -2.9516   -2.1499 H   0  0  0  0  0  0  0  0  0  0  0  0
    6.9783   -5.2867    1.2851 H   0  0  0  0  0  0  0  0  0  0  0  0
    8.2428   -6.0524   -0.3686 H   0  0  0  0  0  0  0  0  0  0  0  0
  1 24  1  0  0  0  0
  1 37  1  0  0  0  0
  2 23  1  0  0  0  0
  2 88  1  0  0  0  0
  3 34  1  0  0  0  0
  3 92  1  0  0  0  0
  4 34  2  0  0  0  0
  5 37  2  0  0  0  0
  6 45  1  0  0  0  0
  6 99  1  0  0  0  0
  7  8  1  0  0  0  0
  7 10  1  0  0  0  0
  7 12  1  0  0  0  0
  7 21  1  0  0  0  0
  8  9  1  0  0  0  0
  8 17  1  0  0  0  0
  8 46  1  0  0  0  0
  9 11  1  0  0  0  0
  9 18  1  0  0  0  0
  9 26  1  0  0  0  0
 10 13  1  0  0  0  0
 10 19  1  0  0  0  0
 10 27  1  0  0  0  0
 11 14  1  0  0  0  0
 11 15  1  0  0  0  0
 11 47  1  0  0  0  0
 12 14  1  0  0  0  0
 12 48  1  0  0  0  0
 12 49  1  0  0  0  0
 13 16  1  0  0  0  0
 13 25  2  0  0  0  0
 14 50  1  0  0  0  0
 14 51  1  0  0  0  0
 15 23  1  0  0  0  0
 15 31  1  0  0  0  0
 15 32  1  0  0  0  0
 16 20  1  0  0  0  0
 16 28  1  0  0  0  0
 16 52  1  0  0  0  0
 17 25  1  0  0  0  0
 17 53  1  0  0  0  0
 17 54  1  0  0  0  0
 18 24  1  0  0  0  0
 18 55  1  0  0  0  0
 18 56  1  0  0  0  0
 19 22  1  0  0  0  0
 19 57  1  0  0  0  0
 19 58  1  0  0  0  0
 20 22  1  0  0  0  0
 20 29  1  0  0  0  0
 20 34  1  0  0  0  0
 21 59  1  0  0  0  0
 21 60  1  0  0  0  0
 21 61  1  0  0  0  0
 22 62  1  0  0  0  0
 22 63  1  0  0  0  0
 23 24  1  0  0  0  0
 23 64  1  0  0  0  0
 24 65  1  0  0  0  0
 25 66  1  0  0  0  0
 26 67  1  0  0  0  0
 26 68  1  0  0  0  0
 26 69  1  0  0  0  0
 27 70  1  0  0  0  0
 27 71  1  0  0  0  0
 27 72  1  0  0  0  0
 28 30  1  0  0  0  0
 28 35  1  0  0  0  0
 28 73  1  0  0  0  0
 29 33  1  0  0  0  0
 29 74  1  0  0  0  0
 29 75  1  0  0  0  0
 30 33  1  0  0  0  0
 30 36  1  0  0  0  0
 30 76  1  0  0  0  0
 31 77  1  0  0  0  0
 31 78  1  0  0  0  0
 31 79  1  0  0  0  0
 32 80  1  0  0  0  0
 32 81  1  0  0  0  0
 32 82  1  0  0  0  0
 33 83  1  0  0  0  0
 33 84  1  0  0  0  0
 35 85  1  0  0  0  0
 35 86  1  0  0  0  0
 35 87  1  0  0  0  0
 36 89  1  0  0  0  0
 36 90  1  0  0  0  0
 36 91  1  0  0  0  0
 37 38  1  0  0  0  0
 38 39  2  0  0  0  0
 38 93  1  0  0  0  0
 39 40  1  0  0  0  0
 39 94  1  0  0  0  0
 40 41  2  0  0  0  0
 40 42  1  0  0  0  0
 41 43  1  0  0  0  0
 41 95  1  0  0  0  0
 42 44  2  0  0  0  0
 42 96  1  0  0  0  0
 43 45  2  0  0  0  0
 43 97  1  0  0  0  0
 44 45  1  0  0  0  0
 44 98  1  0  0  0  0
M  END
> <PUBCHEM_COMPOUND_CID>
10100394

> <PUBCHEM_CONFORMER_RMSD>
1

> <PUBCHEM_CONFORMER_DIVERSEORDER>
1
8
3
6
4
9
2
5
7

> <PUBCHEM_MMFF94_PARTIAL_CHARGES>
34
1 -0.43
10 0.14
13 -0.28
16 0.14
17 0.14
2 -0.68
20 0.06
23 0.28
24 0.28
25 -0.29
3 -0.65
34 0.66
37 0.71
38 -0.14
39 -0.18
4 -0.57
40 0.03
41 -0.15
42 -0.15
43 -0.15
44 -0.15
45 0.08
5 -0.57
6 -0.53
66 0.15
88 0.4
92 0.5
93 0.15
94 0.15
95 0.15
96 0.15
97 0.15
98 0.15
99 0.45

> <PUBCHEM_EFFECTIVE_ROTOR_COUNT>
7.6

> <PUBCHEM_PHARMACOPHORE_FEATURES>
14
1 2 acceptor
1 2 donor
1 3 acceptor
1 4 acceptor
1 5 acceptor
1 6 donor
3 15 31 32 hydrophobe
3 3 4 34 anion
6 10 13 16 19 20 22 rings
6 16 20 28 29 30 33 rings
6 40 41 42 43 44 45 rings
6 7 8 10 13 17 25 rings
6 7 8 9 11 12 14 rings
6 9 11 15 18 23 24 rings

> <PUBCHEM_HEAVY_ATOM_COUNT>
45

> <PUBCHEM_ATOM_DEF_STEREO_COUNT>
11

> <PUBCHEM_ATOM_UDEF_STEREO_COUNT>
0

> <PUBCHEM_BOND_DEF_STEREO_COUNT>
1

> <PUBCHEM_BOND_UDEF_STEREO_COUNT>
0

> <PUBCHEM_ISOTOPIC_ATOM_COUNT>
0

> <PUBCHEM_COMPONENT_COUNT>
1

> <PUBCHEM_CACTVS_TAUTO_COUNT>
2

> <PUBCHEM_CONFORMER_ID>
009A1EAA00000001

> <PUBCHEM_MMFF94_ENERGY>
184.684

> <PUBCHEM_FEATURE_SELFOVERLAP>
71.185

> <PUBCHEM_SHAPE_FINGERPRINT>
10290309 65 17258499942628764994
10622 236 17840014471333490223
11227688 84 18115307761532935642
11409948 41 18052522555617369455
117089 54 18408888425748293738
11756154 67 18339644447832855718
12107183 9 18340778130426199745
12342043 65 18129368329704843048
1361 4 18412260636890675998
13690498 29 18190463766785310682
13782708 43 18130496437013599426
14040222 275 18335435573172387954
14747282 305 18338523053832321707
15274700 232 18121221970007124150
15448158 6 18410851058382801870
15467298 65 17764863984861278606
15705408 1 17895187844308013308
15803439 3 16741685522947986436
15911013 46 18272086128411265792
19301676 85 18336256890782952119
20775438 99 18044655545471832912
21307412 95 18192141612444140140
21353434 59 18130229263814878070
23569914 152 18123433221677692623
255183 451 18408324402132078748
32027 91 18341038705432664645
3504750 166 18272652342613372817
3534868 343 17975417124501388005
4017518 198 17617094707709134164
404807 14 18408602574178543009
44880168 125 18343292648250362523
4756088 132 18048583842916135250
4756326 101 13685453440200130353
57816373 69 18413387661530363384
6201320 221 17695040586167483583
6201460 15 18270116962509293183
9555976 147 17559692788031271747

> <PUBCHEM_SHAPE_MULTIPOLES>
890.86
20.08
9.24
1.73
26.9
1.1
0.18
-37.66
0.34
8.95
-4.47
-0.75
0.36
-0.91

> <PUBCHEM_SHAPE_SELFOVERLAP>
1910.009

> <PUBCHEM_SHAPE_VOLUME>
486.1

> <PUBCHEM_COORDINATE_TYPE>
2
5
10

$$$$
