73981613
  -OEChem-09302004072D

 70 75  0     1  0  0  0  0  0999 V2000
    7.7346   -0.1049    0.0000 O   0  0  0  0  0  0  0  0  0  0  0  0
    5.1366   -2.6049    0.0000 O   0  0  0  0  0  0  0  0  0  0  0  0
    6.8686   -2.6049    0.0000 O   0  0  0  0  0  0  0  0  0  0  0  0
    8.6007   -2.6049    0.0000 O   0  0  0  0  0  0  0  0  0  0  0  0
    8.6007    1.3951    0.0000 O   0  0  0  0  0  0  0  0  0  0  0  0
   10.3327   -1.6049    0.0000 O   0  0  0  0  0  0  0  0  0  0  0  0
   10.3327    0.3951    0.0000 O   0  0  0  0  0  0  0  0  0  0  0  0
    6.8686   -4.6049    0.0000 O   0  0  0  0  0  0  0  0  0  0  0  0
    5.1366   -5.6049    0.0000 O   0  0  0  0  0  0  0  0  0  0  0  0
    3.4045   -4.6049    0.0000 O   0  0  0  0  0  0  0  0  0  0  0  0
    3.4045   -1.6049    0.0000 O   0  0  0  0  0  0  0  0  0  0  0  0
    6.9109    4.3982    0.0000 O   0  0  0  0  0  0  0  0  0  0  0  0
    4.2111    1.9024    0.0000 O   0  0  0  0  0  0  0  0  0  0  0  0
    8.6128    3.3761    0.0000 O   0  0  0  0  0  0  0  0  0  0  0  0
    5.0869    0.3640    0.0000 O   0  0  0  0  0  0  0  0  0  0  0  0
    2.5202    3.0337    0.0000 O   0  0  0  0  0  0  0  0  0  0  0  0
    6.0745    5.9149    0.0000 O   0  0  0  0  0  0  0  0  0  0  0  0
    2.6104    5.0127    0.0000 O   0  0  0  0  0  0  0  0  0  0  0  0
    7.7346   -1.1049    0.0000 C   0  0  3  0  0  0  0  0  0  0  0  0
    8.6007   -1.6049    0.0000 C   0  0  3  0  0  0  0  0  0  0  0  0
    9.4667   -1.1049    0.0000 C   0  0  3  0  0  0  0  0  0  0  0  0
    9.4667   -0.1049    0.0000 C   0  0  3  0  0  0  0  0  0  0  0  0
    6.0026   -4.1049    0.0000 C   0  0  3  0  0  0  0  0  0  0  0  0
    6.0026   -3.1049    0.0000 C   0  0  3  0  0  0  0  0  0  0  0  0
    5.1366   -4.6049    0.0000 C   0  0  3  0  0  0  0  0  0  0  0  0
    4.2705   -4.1049    0.0000 C   0  0  3  0  0  0  0  0  0  0  0  0
    8.6007    0.3951    0.0000 C   0  0  3  0  0  0  0  0  0  0  0  0
    4.2705   -3.1049    0.0000 C   0  0  3  0  0  0  0  0  0  0  0  0
    6.8686   -1.6049    0.0000 C   0  0  0  0  0  0  0  0  0  0  0  0
    3.4045   -2.6049    0.0000 C   0  0  0  0  0  0  0  0  0  0  0  0
    7.7346    1.8951    0.0000 C   0  0  0  0  0  0  0  0  0  0  0  0
    6.0155    2.9155    0.0000 C   0  0  0  0  0  0  0  0  0  0  0  0
    7.7407    2.8868    0.0000 C   0  0  0  0  0  0  0  0  0  0  0  0
    6.8789    1.3940    0.0000 C   0  0  0  0  0  0  0  0  0  0  0  0
    6.0110    1.8739    0.0000 C   0  0  0  0  0  0  0  0  0  0  0  0
    6.8912    3.3984    0.0000 C   0  0  0  0  0  0  0  0  0  0  0  0
    5.1595    3.4325    0.0000 C   0  0  0  0  0  0  0  0  0  0  0  0
    5.1792    4.4323    0.0000 C   0  0  0  0  0  0  0  0  0  0  0  0
    4.2396    2.9436    0.0000 C   0  0  0  0  0  0  0  0  0  0  0  0
    5.1028    1.3639    0.0000 C   0  0  0  0  0  0  0  0  0  0  0  0
    6.0548    4.9151    0.0000 C   0  0  0  0  0  0  0  0  0  0  0  0
    3.4109    3.4883    0.0000 C   0  0  0  0  0  0  0  0  0  0  0  0
    4.3309    4.9460    0.0000 C   0  0  0  0  0  0  0  0  0  0  0  0
    3.4560    4.4790    0.0000 C   0  0  0  0  0  0  0  0  0  0  0  0
    7.1977   -0.7949    0.0000 H   0  0  0  0  0  0  0  0  0  0  0  0
    9.1376   -1.9149    0.0000 H   0  0  0  0  0  0  0  0  0  0  0  0
   10.0036   -0.7949    0.0000 H   0  0  0  0  0  0  0  0  0  0  0  0
   10.0036   -0.4149    0.0000 H   0  0  0  0  0  0  0  0  0  0  0  0
    6.0026   -4.7249    0.0000 H   0  0  0  0  0  0  0  0  0  0  0  0
    6.0026   -2.4849    0.0000 H   0  0  0  0  0  0  0  0  0  0  0  0
    4.5996   -4.9149    0.0000 H   0  0  0  0  0  0  0  0  0  0  0  0
    4.2705   -4.7249    0.0000 H   0  0  0  0  0  0  0  0  0  0  0  0
    9.1376    0.7051    0.0000 H   0  0  0  0  0  0  0  0  0  0  0  0
    4.2705   -2.4849    0.0000 H   0  0  0  0  0  0  0  0  0  0  0  0
    6.6566   -1.0223    0.0000 H   0  0  0  0  0  0  0  0  0  0  0  0
    6.2580   -1.7126    0.0000 H   0  0  0  0  0  0  0  0  0  0  0  0
    2.7939   -2.4973    0.0000 H   0  0  0  0  0  0  0  0  0  0  0  0
    3.1924   -3.1875    0.0000 H   0  0  0  0  0  0  0  0  0  0  0  0
    9.1376   -2.9149    0.0000 H   0  0  0  0  0  0  0  0  0  0  0  0
   10.8696   -1.2949    0.0000 H   0  0  0  0  0  0  0  0  0  0  0  0
   10.3327    1.0151    0.0000 H   0  0  0  0  0  0  0  0  0  0  0  0
    7.4055   -4.2949    0.0000 H   0  0  0  0  0  0  0  0  0  0  0  0
    4.5996   -5.9149    0.0000 H   0  0  0  0  0  0  0  0  0  0  0  0
    2.8676   -4.2949    0.0000 H   0  0  0  0  0  0  0  0  0  0  0  0
    6.8865    0.7740    0.0000 H   0  0  0  0  0  0  0  0  0  0  0  0
    2.8676   -1.2949    0.0000 H   0  0  0  0  0  0  0  0  0  0  0  0
    4.3477    5.5658    0.0000 H   0  0  0  0  0  0  0  0  0  0  0  0
    8.6204    3.9960    0.0000 H   0  0  0  0  0  0  0  0  0  0  0  0
    2.0000    3.3710    0.0000 H   0  0  0  0  0  0  0  0  0  0  0  0
    2.6348    5.6322    0.0000 H   0  0  0  0  0  0  0  0  0  0  0  0
  1 19  1  0  0  0  0
  1 27  1  0  0  0  0
  2 24  1  0  0  0  0
  2 28  1  0  0  0  0
  3 24  1  0  0  0  0
  3 29  1  0  0  0  0
  4 20  1  0  0  0  0
  4 59  1  0  0  0  0
  5 27  1  0  0  0  0
  5 31  1  0  0  0  0
  6 21  1  0  0  0  0
  6 60  1  0  0  0  0
  7 22  1  0  0  0  0
  7 61  1  0  0  0  0
  8 23  1  0  0  0  0
  8 62  1  0  0  0  0
  9 25  1  0  0  0  0
  9 63  1  0  0  0  0
 10 26  1  0  0  0  0
 10 64  1  0  0  0  0
 11 30  1  0  0  0  0
 11 66  1  0  0  0  0
 12 36  1  0  0  0  0
 12 41  1  0  0  0  0
 13 39  1  0  0  0  0
 13 40  1  0  0  0  0
 14 33  1  0  0  0  0
 14 68  1  0  0  0  0
 15 40  2  0  0  0  0
 16 42  1  0  0  0  0
 16 69  1  0  0  0  0
 17 41  2  0  0  0  0
 18 44  1  0  0  0  0
 18 70  1  0  0  0  0
 19 20  1  0  0  0  0
 19 29  1  0  0  0  0
 19 45  1  0  0  0  0
 20 21  1  0  0  0  0
 20 46  1  0  0  0  0
 21 22  1  0  0  0  0
 21 47  1  0  0  0  0
 22 27  1  0  0  0  0
 22 48  1  0  0  0  0
 23 24  1  0  0  0  0
 23 25  1  0  0  0  0
 23 49  1  0  0  0  0
 24 50  1  0  0  0  0
 25 26  1  0  0  0  0
 25 51  1  0  0  0  0
 26 28  1  0  0  0  0
 26 52  1  0  0  0  0
 27 53  1  0  0  0  0
 28 30  1  0  0  0  0
 28 54  1  0  0  0  0
 29 55  1  0  0  0  0
 29 56  1  0  0  0  0
 30 57  1  0  0  0  0
 30 58  1  0  0  0  0
 31 33  2  0  0  0  0
 31 34  1  0  0  0  0
 32 35  1  0  0  0  0
 32 36  2  0  0  0  0
 32 37  1  0  0  0  0
 33 36  1  0  0  0  0
 34 35  2  0  0  0  0
 34 65  1  0  0  0  0
 35 40  1  0  0  0  0
 37 38  1  0  0  0  0
 37 39  2  0  0  0  0
 38 41  1  0  0  0  0
 38 43  2  0  0  0  0
 39 42  1  0  0  0  0
 42 44  2  0  0  0  0
 43 44  1  0  0  0  0
 43 67  1  0  0  0  0
M  END
> <PUBCHEM_COMPOUND_CID>
73981613

> <PUBCHEM_COMPOUND_CANONICALIZED>
1

> <PUBCHEM_CACTVS_COMPLEXITY>
1080

> <PUBCHEM_CACTVS_HBOND_ACCEPTOR>
18

> <PUBCHEM_CACTVS_HBOND_DONOR>
10

> <PUBCHEM_CACTVS_ROTATABLE_BOND>
6

> <PUBCHEM_CACTVS_SUBSKEYS>
AAADceB4PgAAAAAAAAAAAAAAAAAAAAAAAAA0aJEiAAAAAACRQAAAGgAACAAADBSwmAMwDoAABgCIAiDSCAACCAAkIAAAiAEGiMgdNzKGNBqieyOlwBUPuYfK7PzOoAABCAAYQABAAAIQADCAAAAAAAAAAA==

> <PUBCHEM_IUPAC_OPENEYE_NAME>
6,7,14-trihydroxy-13-[3,4,5-trihydroxy-6-[[3,4,5-trihydroxy-6-(hydroxymethyl)tetrahydropyran-2-yl]oxymethyl]tetrahydropyran-2-yl]oxy-2,9-dioxatetracyclo[6.6.2.04,16.011,15]hexadeca-1(15),4,6,8(16),11,13-hexaene-3,10-dione

> <PUBCHEM_IUPAC_CAS_NAME>
6,7,14-trihydroxy-13-[[3,4,5-trihydroxy-6-[[3,4,5-trihydroxy-6-(hydroxymethyl)-2-oxanyl]oxymethyl]-2-oxanyl]oxy]-2,9-dioxatetracyclo[6.6.2.04,16.011,15]hexadeca-1(15),4,6,8(16),11,13-hexaene-3,10-dione

> <PUBCHEM_IUPAC_NAME_MARKUP>
6,7,14-trihydroxy-13-[3,4,5-trihydroxy-6-[[3,4,5-trihydroxy-6-(hydroxymethyl)oxan-2-yl]oxymethyl]oxan-2-yl]oxy-2,9-dioxatetracyclo[6.6.2.0<SUP>4,16</SUP>.0<SUP>11,15</SUP>]hexadeca-1(15),4,6,8(16),11,13-hexaene-3,10-dione

> <PUBCHEM_IUPAC_NAME>
6,7,14-trihydroxy-13-[3,4,5-trihydroxy-6-[[3,4,5-trihydroxy-6-(hydroxymethyl)oxan-2-yl]oxymethyl]oxan-2-yl]oxy-2,9-dioxatetracyclo[6.6.2.04,16.011,15]hexadeca-1(15),4,6,8(16),11,13-hexaene-3,10-dione

> <PUBCHEM_IUPAC_SYSTEMATIC_NAME>
6-[6-[[6-(hydroxymethyl)-3,4,5-tris(oxidanyl)oxan-2-yl]oxymethyl]-3,4,5-tris(oxidanyl)oxan-2-yl]oxy-7,13,14-tris(oxidanyl)-2,9-dioxatetracyclo[6.6.2.04,16.011,15]hexadeca-1(15),4,6,8(16),11,13-hexaene-3,10-dione

> <PUBCHEM_IUPAC_TRADITIONAL_NAME>
6,7,14-trihydroxy-13-[3,4,5-trihydroxy-6-[(3,4,5-trihydroxy-6-methylol-tetrahydropyran-2-yl)oxymethyl]tetrahydropyran-2-yl]oxy-2,9-dioxatetracyclo[6.6.2.04,16.011,15]hexadeca-1(15),4,6,8(16),11,13-hexaene-3,10-quinone

> <PUBCHEM_IUPAC_INCHI>
InChI=1S/C26H26O18/c27-3-9-14(30)17(33)19(35)25(41-9)39-4-10-15(31)18(34)20(36)26(42-10)40-8-2-6-12-11-5(23(37)44-22(12)16(8)32)1-7(28)13(29)21(11)43-24(6)38/h1-2,9-10,14-15,17-20,25-36H,3-4H2

> <PUBCHEM_IUPAC_INCHIKEY>
FHIYBTOOLROABN-UHFFFAOYSA-N

> <PUBCHEM_XLOGP3_AA>
-2.8

> <PUBCHEM_EXACT_MASS>
626.111914

> <PUBCHEM_MOLECULAR_FORMULA>
C26H26O18

> <PUBCHEM_MOLECULAR_WEIGHT>
626.5

> <PUBCHEM_OPENEYE_CAN_SMILES>
C1=C2C3=C(C(=C1O)O)OC(=O)C4=CC(=C(C(=C43)OC2=O)O)OC5C(C(C(C(O5)COC6C(C(C(C(O6)CO)O)O)O)O)O)O

> <PUBCHEM_OPENEYE_ISO_SMILES>
C1=C2C3=C(C(=C1O)O)OC(=O)C4=CC(=C(C(=C43)OC2=O)O)OC5C(C(C(C(O5)COC6C(C(C(C(O6)CO)O)O)O)O)O)O

> <PUBCHEM_CACTVS_TPSA>
292

> <PUBCHEM_MONOISOTOPIC_WEIGHT>
626.111914

> <PUBCHEM_TOTAL_CHARGE>
0

> <PUBCHEM_HEAVY_ATOM_COUNT>
44

> <PUBCHEM_ATOM_DEF_STEREO_COUNT>
0

> <PUBCHEM_ATOM_UDEF_STEREO_COUNT>
10

> <PUBCHEM_BOND_DEF_STEREO_COUNT>
0

> <PUBCHEM_BOND_UDEF_STEREO_COUNT>
0

> <PUBCHEM_ISOTOPIC_ATOM_COUNT>
0

> <PUBCHEM_COMPONENT_COUNT>
1

> <PUBCHEM_CACTVS_TAUTO_COUNT>
-1

> <PUBCHEM_COORDINATE_TYPE>
1
5
255

> <PUBCHEM_BONDANNOTATIONS>
26  10  3
12  36  8
12  41  8
13  39  8
13  40  8
19  29  3
28  30  3
24  3  3
31  33  8
31  34  8
32  35  8
32  36  8
32  37  8
33  36  8
34  35  8
35  40  8
37  38  8
37  39  8
38  41  8
38  43  8
39  42  8
20  4  3
42  44  8
43  44  8
27  5  3
21  6  3
22  7  3
23  8  3
25  9  3

$$$$
