14034821
  -OEChem-11212010463D

 45 47  0     1  0  0  0  0  0999 V2000
   -0.1133   -0.8785   -0.1102 O   0  0  0  0  0  0  0  0  0  0  0  0
    2.3851    0.7449    2.2967 O   0  0  0  0  0  0  0  0  0  0  0  0
   -1.7678    2.7137   -1.2003 O   0  0  0  0  0  0  0  0  0  0  0  0
   -4.1452    1.7582   -0.7352 O   0  0  0  0  0  0  0  0  0  0  0  0
   -4.3941   -2.7928    0.5914 O   0  0  0  0  0  0  0  0  0  0  0  0
    6.1507   -0.7943   -0.1862 O   0  0  0  0  0  0  0  0  0  0  0  0
    0.6080    0.3488    0.0799 C   0  0  2  0  0  0  0  0  0  0  0  0
    0.2157    1.3836   -0.9730 C   0  0  0  0  0  0  0  0  0  0  0  0
    2.0907    0.0471    0.0225 C   0  0  0  0  0  0  0  0  0  0  0  0
   -2.0961    0.5004   -0.4472 C   0  0  0  0  0  0  0  0  0  0  0  0
   -1.2655    1.6430   -0.8802 C   0  0  0  0  0  0  0  0  0  0  0  0
   -1.4732   -0.7043   -0.1083 C   0  0  0  0  0  0  0  0  0  0  0  0
    2.9058    0.2598    1.1349 C   0  0  0  0  0  0  0  0  0  0  0  0
   -3.4889    0.6071   -0.4190 C   0  0  0  0  0  0  0  0  0  0  0  0
    2.6413   -0.4489   -1.1597 C   0  0  0  0  0  0  0  0  0  0  0  0
   -2.2478   -1.8155    0.2266 C   0  0  0  0  0  0  0  0  0  0  0  0
   -3.6388   -1.7117    0.2534 C   0  0  0  0  0  0  0  0  0  0  0  0
   -4.2574   -0.5020   -0.0637 C   0  0  0  0  0  0  0  0  0  0  0  0
    4.2700   -0.0231    1.0650 C   0  0  0  0  0  0  0  0  0  0  0  0
    4.0052   -0.7319   -1.2296 C   0  0  0  0  0  0  0  0  0  0  0  0
    4.8196   -0.5190   -0.1173 C   0  0  0  0  0  0  0  0  0  0  0  0
    2.3648    2.1620    2.4557 C   0  0  0  0  0  0  0  0  0  0  0  0
   -4.4051    2.6699    0.3305 C   0  0  0  0  0  0  0  0  0  0  0  0
   -5.8101   -2.6184    0.5992 C   0  0  0  0  0  0  0  0  0  0  0  0
    6.6464   -1.2980   -1.4258 C   0  0  0  0  0  0  0  0  0  0  0  0
    0.3351    0.7258    1.0741 H   0  0  0  0  0  0  0  0  0  0  0  0
    0.4127    1.0440   -1.9959 H   0  0  0  0  0  0  0  0  0  0  0  0
    0.7512    2.3242   -0.8022 H   0  0  0  0  0  0  0  0  0  0  0  0
    2.0225   -0.6340   -2.0335 H   0  0  0  0  0  0  0  0  0  0  0  0
   -1.7698   -2.7594    0.4769 H   0  0  0  0  0  0  0  0  0  0  0  0
   -5.3341   -0.3652   -0.0597 H   0  0  0  0  0  0  0  0  0  0  0  0
    4.9058    0.1421    1.9312 H   0  0  0  0  0  0  0  0  0  0  0  0
    4.3658   -1.1171   -2.1772 H   0  0  0  0  0  0  0  0  0  0  0  0
    1.8313    2.3947    3.3813 H   0  0  0  0  0  0  0  0  0  0  0  0
    1.8469    2.6469    1.6226 H   0  0  0  0  0  0  0  0  0  0  0  0
    3.3861    2.5476    2.5346 H   0  0  0  0  0  0  0  0  0  0  0  0
   -4.7608    3.6094   -0.1011 H   0  0  0  0  0  0  0  0  0  0  0  0
   -3.5009    2.8716    0.9138 H   0  0  0  0  0  0  0  0  0  0  0  0
   -5.1855    2.2676    0.9840 H   0  0  0  0  0  0  0  0  0  0  0  0
   -6.1213   -1.8839    1.3498 H   0  0  0  0  0  0  0  0  0  0  0  0
   -6.2517   -3.5774    0.8894 H   0  0  0  0  0  0  0  0  0  0  0  0
   -6.1921   -2.3806   -0.3993 H   0  0  0  0  0  0  0  0  0  0  0  0
    6.5243   -0.5690   -2.2341 H   0  0  0  0  0  0  0  0  0  0  0  0
    6.2030   -2.2688   -1.6718 H   0  0  0  0  0  0  0  0  0  0  0  0
    7.7221   -1.4603   -1.3017 H   0  0  0  0  0  0  0  0  0  0  0  0
  1  7  1  0  0  0  0
  1 12  1  0  0  0  0
  2 13  1  0  0  0  0
  2 22  1  0  0  0  0
  3 11  2  0  0  0  0
  4 14  1  0  0  0  0
  4 23  1  0  0  0  0
  5 17  1  0  0  0  0
  5 24  1  0  0  0  0
  6 21  1  0  0  0  0
  6 25  1  0  0  0  0
  7  8  1  0  0  0  0
  7  9  1  0  0  0  0
  7 26  1  0  0  0  0
  8 11  1  0  0  0  0
  8 27  1  0  0  0  0
  8 28  1  0  0  0  0
  9 13  2  0  0  0  0
  9 15  1  0  0  0  0
 10 11  1  0  0  0  0
 10 12  2  0  0  0  0
 10 14  1  0  0  0  0
 12 16  1  0  0  0  0
 13 19  1  0  0  0  0
 14 18  2  0  0  0  0
 15 20  2  0  0  0  0
 15 29  1  0  0  0  0
 16 17  2  0  0  0  0
 16 30  1  0  0  0  0
 17 18  1  0  0  0  0
 18 31  1  0  0  0  0
 19 21  2  0  0  0  0
 19 32  1  0  0  0  0
 20 21  1  0  0  0  0
 20 33  1  0  0  0  0
 22 34  1  0  0  0  0
 22 35  1  0  0  0  0
 22 36  1  0  0  0  0
 23 37  1  0  0  0  0
 23 38  1  0  0  0  0
 23 39  1  0  0  0  0
 24 40  1  0  0  0  0
 24 41  1  0  0  0  0
 24 42  1  0  0  0  0
 25 43  1  0  0  0  0
 25 44  1  0  0  0  0
 25 45  1  0  0  0  0
M  END
> <PUBCHEM_COMPOUND_CID>
14034821

> <PUBCHEM_CONFORMER_RMSD>
0.8

> <PUBCHEM_CONFORMER_DIVERSEORDER>
5
15
13
22
26
27
18
21
17
25
24
23
19
3
7
28
8
10
9
14
20
4
16
12
11
2
6
1

> <PUBCHEM_MMFF94_PARTIAL_CHARGES>
30
1 -0.36
10 0.09
11 0.42
12 0.08
13 0.08
14 0.08
15 -0.15
16 -0.15
17 0.08
18 -0.15
19 -0.15
2 -0.36
20 -0.15
21 0.08
22 0.28
23 0.28
24 0.28
25 0.28
29 0.15
3 -0.57
30 0.15
31 0.15
32 0.15
33 0.15
4 -0.36
5 -0.36
6 -0.36
7 0.42
8 0.06
9 -0.14

> <PUBCHEM_EFFECTIVE_ROTOR_COUNT>
5.6

> <PUBCHEM_PHARMACOPHORE_FEATURES>
9
1 1 acceptor
1 2 acceptor
1 3 acceptor
1 4 acceptor
1 5 acceptor
1 6 acceptor
6 1 7 8 10 11 12 rings
6 10 12 14 16 17 18 rings
6 9 13 15 19 20 21 rings

> <PUBCHEM_HEAVY_ATOM_COUNT>
25

> <PUBCHEM_ATOM_DEF_STEREO_COUNT>
0

> <PUBCHEM_ATOM_UDEF_STEREO_COUNT>
1

> <PUBCHEM_BOND_DEF_STEREO_COUNT>
0

> <PUBCHEM_BOND_UDEF_STEREO_COUNT>
0

> <PUBCHEM_ISOTOPIC_ATOM_COUNT>
0

> <PUBCHEM_COMPONENT_COUNT>
1

> <PUBCHEM_CACTVS_TAUTO_COUNT>
2

> <PUBCHEM_CONFORMER_ID>
00D6278500000005

> <PUBCHEM_MMFF94_ENERGY>
113.3229

> <PUBCHEM_FEATURE_SELFOVERLAP>
45.717

> <PUBCHEM_SHAPE_FINGERPRINT>
10319926 262 18266436790290912464
10366900 7 18199453403133009333
10369192 42 17910377722543843032
10411042 1 18190468345415997287
10595046 47 18041003943013057062
11045977 3 18272926116107540777
11370993 144 17846784005279132745
11545043 162 18342174474920834267
11796584 16 18338798893379384054
12236239 1 17023187089784417726
12293681 4 17916871196817779904
12403259 415 18130783482088139298
12553582 1 17822003237987363057
12788726 201 17459182984839623381
13009979 54 18261404385753364397
13140716 1 18335137622553410861
13402501 40 18343589538176318254
13540713 5 18044399299328860349
13583140 156 17846494824994040543
13673619 4 18343310288034292914
13782708 43 18201998854435731958
14178342 30 18261944189979873339
14294032 229 17750506288228664741
14341114 176 17775288308896113634
14386348 63 18131350783054499574
14950920 106 17060064812691130067
15042514 8 18334016086501587453
15131766 46 16125825266237948793
15537594 2 17313386682096808056
16752209 62 17822562889284861283
17138139 8 16300070345131443811
17804303 29 18410008844844083581
17844677 252 18410299137541568768
18222031 100 18189610721618873943
18681886 176 17967816098034306910
18785283 64 17915730089164919696
21033648 29 17845920892719449353
21065201 7 18408594859963547034
21267235 1 18187936113912316039
21792961 116 17988369170540703118
2297311 6 18335426772098239110
23175994 123 17703789189751187256
23402539 116 18113900446668264846
23557571 272 18411143532349005039
23559900 14 18411132520248121332
2838139 119 15913048656625678817
3004659 81 17531524394880015519
312423 11 17823146768661239421
335352 9 18260547836620809287
3633792 109 14116953496607299733
5104073 3 18411411821976642472
5265222 85 18340216297254089294
602551 16 18334570248487716994
621550 5 18343303678138049680
6823239 73 18410005568169360272
7495541 125 18272368698635998788
7970288 3 18188492513708990579

> <PUBCHEM_SHAPE_MULTIPOLES>
479.27
13.34
2.67
1.52
7.62
0.41
0.68
-7.15
-0.76
-4.43
0.35
1.7
0.75
2.73

> <PUBCHEM_SHAPE_SELFOVERLAP>
1037.985

> <PUBCHEM_SHAPE_VOLUME>
263.1

> <PUBCHEM_COORDINATE_TYPE>
2
5
10

$$$$
