445881
  -OEChem-11212010283D

 36 38  0     1  0  0  0  0  0999 V2000
    0.2877    0.8583   -0.2011 O   0  0  0  0  0  0  0  0  0  0  0  0
   -0.6974   -2.6912   -0.3741 O   0  0  0  0  0  0  0  0  0  0  0  0
    1.9848   -2.6764    0.9467 O   0  0  0  0  0  0  0  0  0  0  0  0
    4.3894   -1.7167    0.0337 O   0  0  0  0  0  0  0  0  0  0  0  0
    4.4790    3.0336    0.0761 O   0  0  0  0  0  0  0  0  0  0  0  0
   -4.2934    0.6460    2.1958 O   0  0  0  0  0  0  0  0  0  0  0  0
   -5.9496    0.7426   -0.0345 O   0  0  0  0  0  0  0  0  0  0  0  0
    0.0194   -1.5629    0.1264 C   0  0  2  0  0  0  0  0  0  0  0  0
   -0.4161   -0.3110   -0.6452 C   0  0  1  0  0  0  0  0  0  0  0  0
    1.5171   -1.8036   -0.0810 C   0  0  1  0  0  0  0  0  0  0  0  0
    2.2972   -0.5176   -0.0461 C   0  0  0  0  0  0  0  0  0  0  0  0
    1.6469    0.7205   -0.1111 C   0  0  0  0  0  0  0  0  0  0  0  0
   -1.8978   -0.0279   -0.4780 C   0  0  0  0  0  0  0  0  0  0  0  0
    3.6989   -0.5394    0.0222 C   0  0  0  0  0  0  0  0  0  0  0  0
    2.3786    1.9105   -0.0542 C   0  0  0  0  0  0  0  0  0  0  0  0
   -2.4250    0.1817    0.7942 C   0  0  0  0  0  0  0  0  0  0  0  0
   -2.7256    0.0203   -1.5975 C   0  0  0  0  0  0  0  0  0  0  0  0
    4.4296    0.6489    0.0636 C   0  0  0  0  0  0  0  0  0  0  0  0
    3.7688    1.8738    0.0315 C   0  0  0  0  0  0  0  0  0  0  0  0
   -3.7869    0.4410    0.9479 C   0  0  0  0  0  0  0  0  0  0  0  0
   -4.0875    0.2795   -1.4440 C   0  0  0  0  0  0  0  0  0  0  0  0
   -4.6181    0.4899   -0.1712 C   0  0  0  0  0  0  0  0  0  0  0  0
   -0.1957   -1.4745    1.1985 H   0  0  0  0  0  0  0  0  0  0  0  0
   -0.2079   -0.4472   -1.7164 H   0  0  0  0  0  0  0  0  0  0  0  0
    1.6810   -2.3015   -1.0456 H   0  0  0  0  0  0  0  0  0  0  0  0
    1.8577    2.8646   -0.0874 H   0  0  0  0  0  0  0  0  0  0  0  0
   -0.3806   -3.4736    0.1087 H   0  0  0  0  0  0  0  0  0  0  0  0
   -1.7801    0.1564    1.6688 H   0  0  0  0  0  0  0  0  0  0  0  0
   -2.3269   -0.1419   -2.5951 H   0  0  0  0  0  0  0  0  0  0  0  0
    2.7747   -3.1323    0.6090 H   0  0  0  0  0  0  0  0  0  0  0  0
    5.5153    0.6282    0.1193 H   0  0  0  0  0  0  0  0  0  0  0  0
   -4.7297    0.3162   -2.3198 H   0  0  0  0  0  0  0  0  0  0  0  0
    5.3427   -1.5305    0.0802 H   0  0  0  0  0  0  0  0  0  0  0  0
    3.8609    3.7839    0.0428 H   0  0  0  0  0  0  0  0  0  0  0  0
   -3.5739    0.5742    2.8463 H   0  0  0  0  0  0  0  0  0  0  0  0
   -6.1425    0.8628    0.9116 H   0  0  0  0  0  0  0  0  0  0  0  0
  1  9  1  0  0  0  0
  1 12  1  0  0  0  0
  2  8  1  0  0  0  0
  2 27  1  0  0  0  0
  3 10  1  0  0  0  0
  3 30  1  0  0  0  0
  4 14  1  0  0  0  0
  4 33  1  0  0  0  0
  5 19  1  0  0  0  0
  5 34  1  0  0  0  0
  6 20  1  0  0  0  0
  6 35  1  0  0  0  0
  7 22  1  0  0  0  0
  7 36  1  0  0  0  0
  8  9  1  0  0  0  0
  8 10  1  0  0  0  0
  8 23  1  0  0  0  0
  9 13  1  0  0  0  0
  9 24  1  0  0  0  0
 10 11  1  0  0  0  0
 10 25  1  0  0  0  0
 11 12  1  0  0  0  0
 11 14  2  0  0  0  0
 12 15  2  0  0  0  0
 13 16  2  0  0  0  0
 13 17  1  0  0  0  0
 14 18  1  0  0  0  0
 15 19  1  0  0  0  0
 15 26  1  0  0  0  0
 16 20  1  0  0  0  0
 16 28  1  0  0  0  0
 17 21  2  0  0  0  0
 17 29  1  0  0  0  0
 18 19  2  0  0  0  0
 18 31  1  0  0  0  0
 20 22  2  0  0  0  0
 21 22  1  0  0  0  0
 21 32  1  0  0  0  0
M  END
> <PUBCHEM_COMPOUND_CID>
445881

> <PUBCHEM_CONFORMER_RMSD>
0.6

> <PUBCHEM_CONFORMER_DIVERSEORDER>
3
2
13
9
1
10
14
11
7
4
6
15
12
5
8

> <PUBCHEM_MMFF94_PARTIAL_CHARGES>
33
1 -0.36
10 0.42
11 -0.14
12 0.08
13 -0.14
14 0.08
15 -0.15
16 -0.15
17 -0.15
18 -0.15
19 0.08
2 -0.68
20 0.08
21 -0.15
22 0.08
26 0.15
27 0.4
28 0.15
29 0.15
3 -0.68
30 0.4
31 0.15
32 0.15
33 0.45
34 0.45
35 0.45
36 0.45
4 -0.53
5 -0.53
6 -0.53
7 -0.53
8 0.28
9 0.42

> <PUBCHEM_EFFECTIVE_ROTOR_COUNT>
1.8

> <PUBCHEM_PHARMACOPHORE_FEATURES>
12
1 1 acceptor
1 2 acceptor
1 2 donor
1 3 acceptor
1 3 donor
1 4 donor
1 5 donor
1 6 donor
1 7 donor
6 1 8 9 10 11 12 rings
6 11 12 14 15 18 19 rings
6 13 16 17 20 21 22 rings

> <PUBCHEM_HEAVY_ATOM_COUNT>
22

> <PUBCHEM_ATOM_DEF_STEREO_COUNT>
2

> <PUBCHEM_ATOM_UDEF_STEREO_COUNT>
1

> <PUBCHEM_BOND_DEF_STEREO_COUNT>
0

> <PUBCHEM_BOND_UDEF_STEREO_COUNT>
0

> <PUBCHEM_ISOTOPIC_ATOM_COUNT>
0

> <PUBCHEM_COMPONENT_COUNT>
1

> <PUBCHEM_CACTVS_TAUTO_COUNT>
90

> <PUBCHEM_CONFORMER_ID>
0006CDB900000003

> <PUBCHEM_MMFF94_ENERGY>
66.3573

> <PUBCHEM_FEATURE_SELFOVERLAP>
60.939

> <PUBCHEM_SHAPE_FINGERPRINT>
10411042 1 17833829370413891214
11045977 3 18040724653425906091
11471102 20 18409444774262673342
11796584 16 14979685364477544220
12107183 9 17621886388098588465
12236239 1 17917989456552198221
12390115 104 18049735297719321260
12403259 415 17967807224141425653
12616971 3 18201431459222054367
12633257 1 18336814382217314880
12644460 14 18261388914911704370
13140716 1 18335416920034164282
13583140 156 16082187732157478812
13631057 29 18055061332118264567
13675066 3 17749110010416541860
14386348 63 17458631077694700763
14739800 52 17059475457536827216
14848178 96 18126840719417693136
15196674 1 18410571833425888830
15342168 16 18337393837208127453
15475509 35 16443614702357622624
15475509 8 17699877054486306070
16945 1 18336536141219304222
1813 80 17698450927333121926
18186145 218 18412265047331361964
19784866 34 18339919428375799000
200 152 18343577435247855197
204376 136 18336546113558157735
20612939 158 18413388730935054364
20645477 70 18410005499080417006
20739085 24 18263098655472186524
21033648 144 18339912822768832908
21033648 29 17821716230818878301
21033650 10 15841013120938006042
21065201 7 15719674247422531515
22122407 14 18270130011389890601
22854114 59 18260830405901511373
23184049 59 18408324380219119588
23557571 272 16588586396943109319
23558518 356 17683237337268561458
23559900 14 16371565865178274667
23569943 247 17626959577652607390
25147074 1 18268411594768687758
335352 9 18410855482663243388
34797466 226 14620510176821474553
4340502 62 18409740569103694475
474 4 18342458157526539593
5104073 3 18335695109176069794
5895379 119 16415213221416082824
602551 16 15936421060346975369
6034566 193 17682409387749296012
633830 44 18130235894905642861
77492 1 17846491505221625847
8272917 22 18341331085288921247
9981440 41 16837660135719448520
9999458 23 18259704489173716814

> <PUBCHEM_SHAPE_MULTIPOLES>
411.66
10.72
2.34
1.14
5.53
0.48
0.18
-4.79
0.87
-3.47
0.22
1.74
-0.08
-0.43

> <PUBCHEM_SHAPE_SELFOVERLAP>
909.609

> <PUBCHEM_SHAPE_VOLUME>
220.3

> <PUBCHEM_COORDINATE_TYPE>
2
5
10

$$$$
