101937309
  -OEChem-09042006593D

 53 56  0     1  0  0  0  0  0999 V2000
   -2.2499    1.3600    1.2399 O   0  0  0  0  0  0  0  0  0  0  0  0
   -0.2021    0.7336    0.2175 O   0  0  0  0  0  0  0  0  0  0  0  0
   -2.0293    4.0019   -1.9497 O   0  0  0  0  0  0  0  0  0  0  0  0
   -1.4772    4.0892    0.7766 O   0  0  0  0  0  0  0  0  0  0  0  0
   -3.9768    1.9155   -1.9692 O   0  0  0  0  0  0  0  0  0  0  0  0
    1.4253   -1.5038   -0.6236 O   0  0  0  0  0  0  0  0  0  0  0  0
    2.0029    1.3751    2.2462 O   0  0  0  0  0  0  0  0  0  0  0  0
    4.4856    1.6094    1.5090 O   0  0  0  0  0  0  0  0  0  0  0  0
    5.8799   -1.0358   -2.1774 O   0  0  0  0  0  0  0  0  0  0  0  0
   -4.3075   -4.0948   -0.3362 O   0  0  0  0  0  0  0  0  0  0  0  0
   -1.8744    2.7836   -1.2255 C   0  0  1  0  0  0  0  0  0  0  0  0
   -0.9715    3.0105   -0.0118 C   0  0  2  0  0  0  0  0  0  0  0  0
   -3.2509    2.2744   -0.7961 C   0  0  2  0  0  0  0  0  0  0  0  0
   -0.9268    1.7674    0.8749 C   0  0  1  0  0  0  0  0  0  0  0  0
   -3.0987    1.0580    0.1278 C   0  0  2  0  0  0  0  0  0  0  0  0
    0.4644   -0.1043    1.1472 C   0  0  1  0  0  0  0  0  0  0  0  0
    0.6547   -1.5171    0.5885 C   0  0  1  0  0  0  0  0  0  0  0  0
   -4.4384    0.6035    0.7001 C   0  0  0  0  0  0  0  0  0  0  0  0
    1.8182    0.5167    1.3912 C   0  0  0  0  0  0  0  0  0  0  0  0
   -0.6732   -2.2075    0.3413 C   0  0  0  0  0  0  0  0  0  0  0  0
    2.9068    0.0809    0.4912 C   0  0  0  0  0  0  0  0  0  0  0  0
    2.6425   -0.8897   -0.4794 C   0  0  0  0  0  0  0  0  0  0  0  0
    4.1737    0.6634    0.5796 C   0  0  0  0  0  0  0  0  0  0  0  0
   -1.2685   -2.9590    1.3545 C   0  0  0  0  0  0  0  0  0  0  0  0
   -1.2993   -2.0903   -0.8997 C   0  0  0  0  0  0  0  0  0  0  0  0
    3.6393   -1.2541   -1.3854 C   0  0  0  0  0  0  0  0  0  0  0  0
    5.1722    0.2805   -0.3165 C   0  0  0  0  0  0  0  0  0  0  0  0
    4.9046   -0.6725   -1.2998 C   0  0  0  0  0  0  0  0  0  0  0  0
   -2.4896   -3.5935    1.1268 C   0  0  0  0  0  0  0  0  0  0  0  0
   -2.5204   -2.7248   -1.1276 C   0  0  0  0  0  0  0  0  0  0  0  0
   -3.1155   -3.4764   -0.1143 C   0  0  0  0  0  0  0  0  0  0  0  0
   -1.4111    2.0629   -1.9109 H   0  0  0  0  0  0  0  0  0  0  0  0
    0.0315    3.2930   -0.3520 H   0  0  0  0  0  0  0  0  0  0  0  0
   -3.8071    3.0779   -0.2991 H   0  0  0  0  0  0  0  0  0  0  0  0
   -0.4354    2.0488    1.8139 H   0  0  0  0  0  0  0  0  0  0  0  0
   -2.6776    0.2183   -0.4303 H   0  0  0  0  0  0  0  0  0  0  0  0
   -0.0792   -0.1741    2.0993 H   0  0  0  0  0  0  0  0  0  0  0  0
    1.2140   -2.1309    1.3112 H   0  0  0  0  0  0  0  0  0  0  0  0
   -4.8969    1.3974    1.2999 H   0  0  0  0  0  0  0  0  0  0  0  0
   -4.2954   -0.2531    1.3681 H   0  0  0  0  0  0  0  0  0  0  0  0
   -5.1358    0.3131   -0.0912 H   0  0  0  0  0  0  0  0  0  0  0  0
   -1.1411    4.3062   -2.2029 H   0  0  0  0  0  0  0  0  0  0  0  0
   -0.8461    4.2463    1.4995 H   0  0  0  0  0  0  0  0  0  0  0  0
   -3.5085    1.1802   -2.4003 H   0  0  0  0  0  0  0  0  0  0  0  0
   -0.7921   -3.0555    2.3264 H   0  0  0  0  0  0  0  0  0  0  0  0
   -0.8606   -1.5015   -1.7006 H   0  0  0  0  0  0  0  0  0  0  0  0
    3.4353   -1.9975   -2.1522 H   0  0  0  0  0  0  0  0  0  0  0  0
    6.1582    0.7344   -0.2489 H   0  0  0  0  0  0  0  0  0  0  0  0
   -2.9489   -4.1767    1.9203 H   0  0  0  0  0  0  0  0  0  0  0  0
   -2.9997   -2.6225   -2.0974 H   0  0  0  0  0  0  0  0  0  0  0  0
    3.7439    1.7455    2.1180 H   0  0  0  0  0  0  0  0  0  0  0  0
    6.6893   -0.5361   -1.9741 H   0  0  0  0  0  0  0  0  0  0  0  0
   -4.5958   -3.9060   -1.2457 H   0  0  0  0  0  0  0  0  0  0  0  0
  1 14  1  0  0  0  0
  1 15  1  0  0  0  0
  2 14  1  0  0  0  0
  2 16  1  0  0  0  0
  3 11  1  0  0  0  0
  3 42  1  0  0  0  0
  4 12  1  0  0  0  0
  4 43  1  0  0  0  0
  5 13  1  0  0  0  0
  5 44  1  0  0  0  0
  6 17  1  0  0  0  0
  6 22  1  0  0  0  0
  7 19  2  0  0  0  0
  8 23  1  0  0  0  0
  8 51  1  0  0  0  0
  9 28  1  0  0  0  0
  9 52  1  0  0  0  0
 10 31  1  0  0  0  0
 10 53  1  0  0  0  0
 11 12  1  0  0  0  0
 11 13  1  0  0  0  0
 11 32  1  0  0  0  0
 12 14  1  0  0  0  0
 12 33  1  0  0  0  0
 13 15  1  0  0  0  0
 13 34  1  0  0  0  0
 14 35  1  0  0  0  0
 15 18  1  0  0  0  0
 15 36  1  0  0  0  0
 16 17  1  0  0  0  0
 16 19  1  0  0  0  0
 16 37  1  0  0  0  0
 17 20  1  0  0  0  0
 17 38  1  0  0  0  0
 18 39  1  0  0  0  0
 18 40  1  0  0  0  0
 18 41  1  0  0  0  0
 19 21  1  0  0  0  0
 20 24  2  0  0  0  0
 20 25  1  0  0  0  0
 21 22  1  0  0  0  0
 21 23  2  0  0  0  0
 22 26  2  0  0  0  0
 23 27  1  0  0  0  0
 24 29  1  0  0  0  0
 24 45  1  0  0  0  0
 25 30  2  0  0  0  0
 25 46  1  0  0  0  0
 26 28  1  0  0  0  0
 26 47  1  0  0  0  0
 27 28  2  0  0  0  0
 27 48  1  0  0  0  0
 29 31  2  0  0  0  0
 29 49  1  0  0  0  0
 30 31  1  0  0  0  0
 30 50  1  0  0  0  0
M  END
> <PUBCHEM_COMPOUND_CID>
101937309

> <PUBCHEM_CONFORMER_RMSD>
0.8

> <PUBCHEM_CONFORMER_DIVERSEORDER>
1
16
23
24
17
26
25
7
11
14
19
22
13
27
15
5
9
21
4
18
10
2
3
12
6
20
8

> <PUBCHEM_MMFF94_PARTIAL_CHARGES>
42
1 -0.56
10 -0.53
11 0.28
12 0.28
13 0.28
14 0.56
15 0.28
16 0.34
17 0.42
19 0.42
2 -0.56
20 -0.14
21 0.09
22 0.08
23 0.08
24 -0.15
25 -0.15
26 -0.15
27 -0.15
28 0.08
29 -0.15
3 -0.68
30 -0.15
31 0.08
4 -0.68
42 0.4
43 0.4
44 0.4
45 0.15
46 0.15
47 0.15
48 0.15
49 0.15
5 -0.68
50 0.15
51 0.45
52 0.45
53 0.45
6 -0.36
7 -0.57
8 -0.53
9 -0.53

> <PUBCHEM_EFFECTIVE_ROTOR_COUNT>
4.8

> <PUBCHEM_PHARMACOPHORE_FEATURES>
17
1 1 acceptor
1 10 donor
1 2 acceptor
1 3 acceptor
1 3 donor
1 4 acceptor
1 4 donor
1 5 acceptor
1 5 donor
1 6 acceptor
1 7 acceptor
1 8 donor
1 9 donor
6 1 11 12 13 14 15 rings
6 20 24 25 29 30 31 rings
6 21 22 23 26 27 28 rings
6 6 16 17 19 21 22 rings

> <PUBCHEM_HEAVY_ATOM_COUNT>
31

> <PUBCHEM_ATOM_DEF_STEREO_COUNT>
7

> <PUBCHEM_ATOM_UDEF_STEREO_COUNT>
0

> <PUBCHEM_BOND_DEF_STEREO_COUNT>
0

> <PUBCHEM_BOND_UDEF_STEREO_COUNT>
0

> <PUBCHEM_ISOTOPIC_ATOM_COUNT>
0

> <PUBCHEM_COMPONENT_COUNT>
1

> <PUBCHEM_CACTVS_TAUTO_COUNT>
24

> <PUBCHEM_CONFORMER_ID>
0613709D00000001

> <PUBCHEM_MMFF94_ENERGY>
93.4027

> <PUBCHEM_FEATURE_SELFOVERLAP>
86.364

> <PUBCHEM_SHAPE_FINGERPRINT>
10165383 225 18195265320488147985
10688039 33 18193272112149926586
11513181 2 17626106704219818007
11578080 2 16701441502726090130
12160290 23 18341035368174354987
12422481 6 18127435529527823555
12788726 201 18188204402944003946
13149001 5 18130783422069496960
13402501 40 18273219694449648087
13540713 4 18131349726951344186
13681431 1 17688313807802041243
13690498 29 18199488665695802902
140371 6 17689156037945681243
14251757 5 18335147500381748630
15463212 79 18114182982301469722
15961568 22 17975130165331163108
17357779 13 18127681841211616303
17492 54 18335405843629882655
1813 80 18123195872377607658
19319366 153 17337889122581113129
20600515 1 17535455239138509014
21033648 29 18265329517505082424
21285901 2 18127412461153007118
21641784 216 18118702134379946540
22182313 1 17988637549819126386
22907989 373 18410585006380645428
23227448 37 18408606993568216972
23557571 272 18339357591119301992
23559900 14 18130509648528472858
238 59 17835787613364501997
24893989 43 16542346598972834869
255183 451 17619361239197548959
3052486 1 18261383490104193810
4058900 60 17977107856073759057
437795 70 18270663381919109015
469060 322 17749388204629322527
7237137 82 18269858530732739110
81228 2 18338234998036863731

> <PUBCHEM_SHAPE_MULTIPOLES>
579.27
9.4
5.13
1.75
10.57
0.06
-0.2
-1.45
-3.26
-8.21
-0.72
0.7
0.5
2.09

> <PUBCHEM_SHAPE_SELFOVERLAP>
1267.365

> <PUBCHEM_SHAPE_VOLUME>
311.5

> <PUBCHEM_COORDINATE_TYPE>
2
5
10

$$$$
