573721
  -OEChem-09042012113D

 29 28  0     0  0  0  0  0  0999 V2000
   -3.7365   -0.4833    0.0209 O   0  0  0  0  0  0  0  0  0  0  0  0
    4.7275    0.6511    0.1212 O   0  0  0  0  0  0  0  0  0  0  0  0
   -2.7154    1.5867   -0.0214 O   0  0  0  0  0  0  0  0  0  0  0  0
    3.7770   -1.4423   -0.0661 O   0  0  0  0  0  0  0  0  0  0  0  0
   -0.1491    0.4701   -0.1302 C   0  0  0  0  0  0  0  0  0  0  0  0
    1.1553   -0.3365   -0.1484 C   0  0  0  0  0  0  0  0  0  0  0  0
   -1.3858   -0.4247   -0.1266 C   0  0  0  0  0  0  0  0  0  0  0  0
    2.3932    0.5582   -0.0803 C   0  0  0  0  0  0  0  0  0  0  0  0
   -2.6692    0.3633   -0.0358 C   0  0  0  0  0  0  0  0  0  0  0  0
    3.6875   -0.2230   -0.0208 C   0  0  0  0  0  0  0  0  0  0  0  0
   -5.0186    0.1469    0.1048 C   0  0  0  0  0  0  0  0  0  0  0  0
   -6.0903   -0.9209    0.1597 C   0  0  0  0  0  0  0  0  0  0  0  0
    6.0244    0.0544    0.2232 C   0  0  0  0  0  0  0  0  0  0  0  0
   -0.1782    1.1377   -1.0004 H   0  0  0  0  0  0  0  0  0  0  0  0
   -0.1627    1.1143    0.7582 H   0  0  0  0  0  0  0  0  0  0  0  0
    1.1948   -0.9511   -1.0564 H   0  0  0  0  0  0  0  0  0  0  0  0
    1.1636   -1.0325    0.7000 H   0  0  0  0  0  0  0  0  0  0  0  0
   -1.4135   -1.0199   -1.0460 H   0  0  0  0  0  0  0  0  0  0  0  0
   -1.3448   -1.1023    0.7338 H   0  0  0  0  0  0  0  0  0  0  0  0
    2.4268    1.2064   -0.9631 H   0  0  0  0  0  0  0  0  0  0  0  0
    2.3379    1.1851    0.8171 H   0  0  0  0  0  0  0  0  0  0  0  0
   -5.0639    0.7637    1.0094 H   0  0  0  0  0  0  0  0  0  0  0  0
   -5.1723    0.7807   -0.7757 H   0  0  0  0  0  0  0  0  0  0  0  0
   -7.0857   -0.4729    0.2244 H   0  0  0  0  0  0  0  0  0  0  0  0
   -6.0460   -1.5573   -0.7302 H   0  0  0  0  0  0  0  0  0  0  0  0
   -5.9394   -1.5742    1.0254 H   0  0  0  0  0  0  0  0  0  0  0  0
    6.7598    0.8559    0.3319 H   0  0  0  0  0  0  0  0  0  0  0  0
    6.2533   -0.5116   -0.6848 H   0  0  0  0  0  0  0  0  0  0  0  0
    6.0758   -0.5912    1.1051 H   0  0  0  0  0  0  0  0  0  0  0  0
  1  9  1  0  0  0  0
  1 11  1  0  0  0  0
  2 10  1  0  0  0  0
  2 13  1  0  0  0  0
  3  9  2  0  0  0  0
  4 10  2  0  0  0  0
  5  6  1  0  0  0  0
  5  7  1  0  0  0  0
  5 14  1  0  0  0  0
  5 15  1  0  0  0  0
  6  8  1  0  0  0  0
  6 16  1  0  0  0  0
  6 17  1  0  0  0  0
  7  9  1  0  0  0  0
  7 18  1  0  0  0  0
  7 19  1  0  0  0  0
  8 10  1  0  0  0  0
  8 20  1  0  0  0  0
  8 21  1  0  0  0  0
 11 12  1  0  0  0  0
 11 22  1  0  0  0  0
 11 23  1  0  0  0  0
 12 24  1  0  0  0  0
 12 25  1  0  0  0  0
 12 26  1  0  0  0  0
 13 27  1  0  0  0  0
 13 28  1  0  0  0  0
 13 29  1  0  0  0  0
M  END
> <PUBCHEM_COMPOUND_CID>
573721

> <PUBCHEM_CONFORMER_RMSD>
0.8

> <PUBCHEM_CONFORMER_DIVERSEORDER>
1
164
152
265
237
244
44
16
227
103
241
86
129
205
59
243
15
14
285
134
54
202
203
257
235
176
7
190
246
188
12
264
47
250
96
25
278
208
135
171
231
170
19
28
242
234
254
262
43
211
154
131
10
51
284
279
280
255
94
18
276
102
240
108
169
3
204
213
100
93
258
191
48
31
178
221
273
189
30
214
163
268
141
120
193
144
187
174
216
274
89
166
36
66
149
68
206
33
56
26
269
222
160
239
124
101
267
13
21
72
272
116
230
198
107
218
71
11
238
248
61
184
220
275
282
8
168
271
121
24
210
286
260
277
207
200
185
229
224
182
17
9
63
70
109
201
252
261
128
219
251
225
79
90
85
45
130
98
247
209
183
53
197
228
92
73
194
125
127
39
270
132
159
122
69
165
23
136
75
147
49
34
41
123
99
133
175
112
64
84
167
40
2
91
35
151
253
81
52
266
199
195
145
76
50
82
88
115
256
162
20
192
111
215
113
232
118
173
150
4
233
181
146
138
259
196
148
110
32
161
42
172
226
126
67
5
78
180
60
223
281
46
139
236
65
283
38
186
83
22
74
153
97
263
155
55
37
245
158
137
29
62
95
87
249
104
143
27
57
157
58
212
6
177
117
77
119
105
80
156
106
179
217
140
114
142

> <PUBCHEM_MMFF94_PARTIAL_CHARGES>
10
1 -0.43
10 0.66
11 0.28
13 0.28
2 -0.43
3 -0.57
4 -0.57
7 0.06
8 0.06
9 0.66

> <PUBCHEM_EFFECTIVE_ROTOR_COUNT>
8

> <PUBCHEM_PHARMACOPHORE_FEATURES>
3
1 3 acceptor
1 4 acceptor
4 5 6 7 8 hydrophobe

> <PUBCHEM_HEAVY_ATOM_COUNT>
13

> <PUBCHEM_ATOM_DEF_STEREO_COUNT>
0

> <PUBCHEM_ATOM_UDEF_STEREO_COUNT>
0

> <PUBCHEM_BOND_DEF_STEREO_COUNT>
0

> <PUBCHEM_BOND_UDEF_STEREO_COUNT>
0

> <PUBCHEM_ISOTOPIC_ATOM_COUNT>
0

> <PUBCHEM_COMPONENT_COUNT>
1

> <PUBCHEM_CACTVS_TAUTO_COUNT>
1

> <PUBCHEM_CONFORMER_ID>
0008C11900000001

> <PUBCHEM_MMFF94_ENERGY>
8.5504

> <PUBCHEM_FEATURE_SELFOVERLAP>
15.223

> <PUBCHEM_SHAPE_FINGERPRINT>
114248 4 18408040714677141136
12091667 2 17022902350759201381
13533116 47 16371275659234386072
14123238 8 18273496771015551980
1420 363 18410016541388509195
14251718 22 18187082862275361889
14251732 16 18342457100922328457
14251764 46 16630808807259237246
15048467 5 10663822974967143379
15242439 84 8142083165247495284
17834072 33 18334015033601636252
17834072 8 8430317948225491954
17834076 25 14620796002726220942
187816 3 13912321287517663597
200 152 18411698786232435729
20279233 1 17749116577917435842
20645477 56 11312060937522223427
20645477 70 18341051796962682798
20767249 13 16298104285101508204
22896161 15 18338799021568422223
23218964 4 9367351426702152516
23402539 116 18409443700715969909
29717793 49 12829484827545531554
3545911 37 18344146999366555190
42 15 18409731746380797926
42788 4 18410855464428423333
542803 24 14477242669429356488
8209 1 18410573993741385756

> <PUBCHEM_SHAPE_MULTIPOLES>
244.06
14.9
1.06
0.6
0.31
0.03
0
-2.24
-1.4
0.23
0.01
0
0
0.11

> <PUBCHEM_SHAPE_SELFOVERLAP>
454.375

> <PUBCHEM_SHAPE_VOLUME>
153.2

> <PUBCHEM_COORDINATE_TYPE>
2
5
10

$$$$
