102132638
  -OEChem-09042007113D

 42 44  0     1  0  0  0  0  0999 V2000
    0.1753    1.0410   -1.0066 O   0  0  0  0  0  0  0  0  0  0  0  0
   -1.6123   -2.1612   -1.0109 O   0  0  0  0  0  0  0  0  0  0  0  0
    0.7693   -2.8667    0.1161 O   0  0  0  0  0  0  0  0  0  0  0  0
    3.2508   -2.3546    0.5977 O   0  0  0  0  0  0  0  0  0  0  0  0
    4.7110    2.1153   -0.1956 O   0  0  0  0  0  0  0  0  0  0  0  0
   -6.6373    1.4492   -0.0540 O   0  0  0  0  0  0  0  0  0  0  0  0
   -0.8190   -1.1315   -0.4402 C   0  0  2  0  0  0  0  0  0  0  0  0
   -1.4695   -0.6567    0.8579 C   0  0  0  0  0  0  0  0  0  0  0  0
   -0.6705   -0.0146   -1.4675 C   0  0  0  0  0  0  0  0  0  0  0  0
    0.5637   -1.6893   -0.1550 C   0  0  0  0  0  0  0  0  0  0  0  0
    1.6722   -0.7107   -0.1976 C   0  0  0  0  0  0  0  0  0  0  0  0
    1.4113    0.6010   -0.6075 C   0  0  0  0  0  0  0  0  0  0  0  0
   -2.8437   -0.0962    0.6158 C   0  0  0  0  0  0  0  0  0  0  0  0
    2.9601   -1.0845    0.1949 C   0  0  0  0  0  0  0  0  0  0  0  0
    3.9840   -0.1367    0.1915 C   0  0  0  0  0  0  0  0  0  0  0  0
    2.4360    1.5485   -0.5907 C   0  0  0  0  0  0  0  0  0  0  0  0
    3.7218    1.1777   -0.1959 C   0  0  0  0  0  0  0  0  0  0  0  0
   -3.0051    1.2617    0.3401 C   0  0  0  0  0  0  0  0  0  0  0  0
   -3.9573   -0.9346    0.6664 C   0  0  0  0  0  0  0  0  0  0  0  0
    5.3670   -0.5239    0.6105 C   0  0  0  0  0  0  0  0  0  0  0  0
   -4.2799    1.7811    0.1154 C   0  0  0  0  0  0  0  0  0  0  0  0
   -5.2322   -0.4153    0.4417 C   0  0  0  0  0  0  0  0  0  0  0  0
   -5.3935    0.9425    0.1663 C   0  0  0  0  0  0  0  0  0  0  0  0
    4.8979    2.8586    1.0071 C   0  0  0  0  0  0  0  0  0  0  0  0
   -0.8514    0.0915    1.3710 H   0  0  0  0  0  0  0  0  0  0  0  0
   -1.5513   -1.4929    1.5663 H   0  0  0  0  0  0  0  0  0  0  0  0
   -0.2498   -0.4112   -2.4042 H   0  0  0  0  0  0  0  0  0  0  0  0
   -1.6316    0.4103   -1.7730 H   0  0  0  0  0  0  0  0  0  0  0  0
   -1.7243   -2.8616   -0.3455 H   0  0  0  0  0  0  0  0  0  0  0  0
    2.2356    2.5732   -0.8941 H   0  0  0  0  0  0  0  0  0  0  0  0
   -2.1497    1.9308    0.3090 H   0  0  0  0  0  0  0  0  0  0  0  0
   -3.8468   -1.9941    0.8819 H   0  0  0  0  0  0  0  0  0  0  0  0
    5.4615   -0.4559    1.6989 H   0  0  0  0  0  0  0  0  0  0  0  0
    5.6071   -1.5465    0.2999 H   0  0  0  0  0  0  0  0  0  0  0  0
    6.1309    0.1133    0.1530 H   0  0  0  0  0  0  0  0  0  0  0  0
   -4.3995    2.8401   -0.0965 H   0  0  0  0  0  0  0  0  0  0  0  0
   -6.0916   -1.0790    0.4843 H   0  0  0  0  0  0  0  0  0  0  0  0
    2.4671   -2.9218    0.5505 H   0  0  0  0  0  0  0  0  0  0  0  0
    4.0075    3.4556    1.2284 H   0  0  0  0  0  0  0  0  0  0  0  0
    5.1210    2.1936    1.8471 H   0  0  0  0  0  0  0  0  0  0  0  0
    5.7448    3.5351    0.8631 H   0  0  0  0  0  0  0  0  0  0  0  0
   -7.2880    0.7300    0.0194 H   0  0  0  0  0  0  0  0  0  0  0  0
  1  9  1  0  0  0  0
  1 12  1  0  0  0  0
  2  7  1  0  0  0  0
  2 29  1  0  0  0  0
  3 10  2  0  0  0  0
  4 14  1  0  0  0  0
  4 38  1  0  0  0  0
  5 17  1  0  0  0  0
  5 24  1  0  0  0  0
  6 23  1  0  0  0  0
  6 42  1  0  0  0  0
  7  8  1  0  0  0  0
  7  9  1  0  0  0  0
  7 10  1  0  0  0  0
  8 13  1  0  0  0  0
  8 25  1  0  0  0  0
  8 26  1  0  0  0  0
  9 27  1  0  0  0  0
  9 28  1  0  0  0  0
 10 11  1  0  0  0  0
 11 12  1  0  0  0  0
 11 14  2  0  0  0  0
 12 16  2  0  0  0  0
 13 18  2  0  0  0  0
 13 19  1  0  0  0  0
 14 15  1  0  0  0  0
 15 17  2  0  0  0  0
 15 20  1  0  0  0  0
 16 17  1  0  0  0  0
 16 30  1  0  0  0  0
 18 21  1  0  0  0  0
 18 31  1  0  0  0  0
 19 22  2  0  0  0  0
 19 32  1  0  0  0  0
 20 33  1  0  0  0  0
 20 34  1  0  0  0  0
 20 35  1  0  0  0  0
 21 23  2  0  0  0  0
 21 36  1  0  0  0  0
 22 23  1  0  0  0  0
 22 37  1  0  0  0  0
 24 39  1  0  0  0  0
 24 40  1  0  0  0  0
 24 41  1  0  0  0  0
M  END
> <PUBCHEM_COMPOUND_CID>
102132638

> <PUBCHEM_CONFORMER_RMSD>
0.6

> <PUBCHEM_CONFORMER_DIVERSEORDER>
1
10
9
7
2
8
4
14
13
3
5
12
11
6

> <PUBCHEM_MMFF94_PARTIAL_CHARGES>
32
1 -0.36
10 0.42
11 0.09
12 0.08
13 -0.14
14 0.08
15 -0.14
16 -0.15
17 0.08
18 -0.15
19 -0.15
2 -0.68
20 0.14
21 -0.15
22 -0.15
23 0.08
24 0.28
29 0.4
3 -0.57
30 0.15
31 0.15
32 0.15
36 0.15
37 0.15
38 0.45
4 -0.53
42 0.45
5 -0.36
6 -0.53
7 0.34
8 0.14
9 0.28

> <PUBCHEM_EFFECTIVE_ROTOR_COUNT>
3.6

> <PUBCHEM_PHARMACOPHORE_FEATURES>
10
1 1 acceptor
1 2 acceptor
1 2 donor
1 3 acceptor
1 4 donor
1 5 acceptor
1 6 donor
6 1 7 9 10 11 12 rings
6 11 12 14 15 16 17 rings
6 13 18 19 21 22 23 rings

> <PUBCHEM_HEAVY_ATOM_COUNT>
24

> <PUBCHEM_ATOM_DEF_STEREO_COUNT>
1

> <PUBCHEM_ATOM_UDEF_STEREO_COUNT>
0

> <PUBCHEM_BOND_DEF_STEREO_COUNT>
0

> <PUBCHEM_BOND_UDEF_STEREO_COUNT>
0

> <PUBCHEM_ISOTOPIC_ATOM_COUNT>
0

> <PUBCHEM_COMPONENT_COUNT>
1

> <PUBCHEM_CACTVS_TAUTO_COUNT>
20

> <PUBCHEM_CONFORMER_ID>
06166B9E00000001

> <PUBCHEM_MMFF94_ENERGY>
84.23

> <PUBCHEM_FEATURE_SELFOVERLAP>
50.783

> <PUBCHEM_SHAPE_FINGERPRINT>
10411042 1 17761775057736343146
10493431 412 18337390573280655116
11089746 13 18201997742196931436
11370993 70 18408045104561323571
11961588 58 15913039971658142152
12107183 9 17760086211895766249
12236239 1 18201998837081321655
12596602 18 17822012046839089977
12633257 1 16298388014909909496
12788726 201 17417823832937857616
12892183 10 18260555549453605675
13140716 1 18335698356224378242
13533116 47 18115026299182832587
13583140 156 18268156533534470547
13785724 45 17763183540568419714
13878862 14 18265874930647910341
14178342 30 17972599063698961618
14251764 38 18270123388059637849
14341114 176 18334304145293800267
14739800 52 17988630944033201936
14787075 74 18201999975553486803
14790565 3 17683257120089257996
14955137 171 18194398888874007354
15188451 53 16009327525571408179
15196674 1 18408889537991413761
15209294 21 18339923830748815556
15475509 35 16443615789089882522
15475509 84 18268143155039099264
15527383 91 18260829281084154020
1813 80 15864073173701226550
20157964 124 18410855417901149517
20511986 3 18336252510147729981
20715895 44 18051412869090690849
20739085 24 18113340803997748124
21033648 29 18342171227910143953
21033650 10 13901370155841973610
21315764 268 18335415759887040285
21452121 103 18409165506951913386
21756936 100 18128251393078190068
21859007 373 17097200637973405861
22182313 1 17749937882954191902
23184049 59 18260268564012839758
23227448 37 18129943519492001157
23402539 116 18343861126464633501
23559900 14 18334019358712889395
2838139 119 18340762663869288285
335352 9 18410576172218460438
3472631 163 18060138790319681068
34797466 226 17917438614048274453
350125 39 18335421245213911324
351380 180 18335423448294614305
474 4 18409732845966538715
5104073 3 18334022666306972659
7970288 3 9150637676637303904
8272917 22 18339365166909277934
9981440 41 18334300898557442739

> <PUBCHEM_SHAPE_MULTIPOLES>
458.69
12.72
2.57
0.96
7.3
0.01
-0.11
-7.08
3.04
-2.02
0.24
-0.09
-0.04
0.09

> <PUBCHEM_SHAPE_SELFOVERLAP>
1008.262

> <PUBCHEM_SHAPE_VOLUME>
247.1

> <PUBCHEM_COORDINATE_TYPE>
2
5
10

$$$$
