3035567
  -OEChem-09042007143D

 55 58  0     1  0  0  0  0  0999 V2000
    2.4345    0.4498   -0.3769 O   0  0  0  0  0  0  0  0  0  0  0  0
    0.5384    0.6445    0.9690 O   0  0  0  0  0  0  0  0  0  0  0  0
    4.2028    3.6911    1.4216 O   0  0  0  0  0  0  0  0  0  0  0  0
    1.2884    3.2983    1.6037 O   0  0  0  0  0  0  0  0  0  0  0  0
    5.1955    2.7382   -1.1206 O   0  0  0  0  0  0  0  0  0  0  0  0
   -2.4074   -1.3343   -0.0158 O   0  0  0  0  0  0  0  0  0  0  0  0
    3.4146   -0.7937   -2.6238 O   0  0  0  0  0  0  0  0  0  0  0  0
   -1.2490    2.5833    0.3751 O   0  0  0  0  0  0  0  0  0  0  0  0
   -3.6771    3.3548   -0.1341 O   0  0  0  0  0  0  0  0  0  0  0  0
   -6.8785   -0.0575   -0.9271 O   0  0  0  0  0  0  0  0  0  0  0  0
    1.6167   -4.1376   -1.6721 O   0  0  0  0  0  0  0  0  0  0  0  0
    2.2417   -5.4418    0.7009 O   0  0  0  0  0  0  0  0  0  0  0  0
    3.3910    3.0284    0.4507 C   0  0  2  0  0  0  0  0  0  0  0  0
    2.2299    2.3245    1.1532 C   0  0  2  0  0  0  0  0  0  0  0  0
    4.2719    2.0288   -0.2991 C   0  0  1  0  0  0  0  0  0  0  0  0
    1.5091    1.3631    0.2083 C   0  0  1  0  0  0  0  0  0  0  0  0
    3.4213    1.1057   -1.1749 C   0  0  1  0  0  0  0  0  0  0  0  0
   -0.5720    0.2756    0.1700 C   0  0  1  0  0  0  0  0  0  0  0  0
   -1.2424   -0.9741    0.7433 C   0  0  2  0  0  0  0  0  0  0  0  0
    4.2657    0.0248   -1.8425 C   0  0  0  0  0  0  0  0  0  0  0  0
   -1.5679    1.4146    0.1913 C   0  0  0  0  0  0  0  0  0  0  0  0
   -0.3091   -2.1701    0.7287 C   0  0  0  0  0  0  0  0  0  0  0  0
   -2.9722    1.0386   -0.0644 C   0  0  0  0  0  0  0  0  0  0  0  0
   -3.3071   -0.3134   -0.1691 C   0  0  0  0  0  0  0  0  0  0  0  0
   -3.9500    2.0235   -0.2283 C   0  0  0  0  0  0  0  0  0  0  0  0
    0.2331   -2.6127   -0.4761 C   0  0  0  0  0  0  0  0  0  0  0  0
    0.0024   -2.8224    1.9198 C   0  0  0  0  0  0  0  0  0  0  0  0
   -4.6194   -0.6797   -0.4733 C   0  0  0  0  0  0  0  0  0  0  0  0
   -5.2634    1.6501   -0.5143 C   0  0  0  0  0  0  0  0  0  0  0  0
   -5.5968    0.3016   -0.6412 C   0  0  0  0  0  0  0  0  0  0  0  0
    1.0908   -3.7127   -0.4897 C   0  0  0  0  0  0  0  0  0  0  0  0
    0.8600   -3.9222    1.9062 C   0  0  0  0  0  0  0  0  0  0  0  0
    1.4043   -4.3673    0.7016 C   0  0  0  0  0  0  0  0  0  0  0  0
    3.0282    3.8058   -0.2329 H   0  0  0  0  0  0  0  0  0  0  0  0
    2.5891    1.7949    2.0435 H   0  0  0  0  0  0  0  0  0  0  0  0
    4.8506    1.4485    0.4313 H   0  0  0  0  0  0  0  0  0  0  0  0
    1.0216    1.9389   -0.5905 H   0  0  0  0  0  0  0  0  0  0  0  0
    2.9123    1.6741   -1.9653 H   0  0  0  0  0  0  0  0  0  0  0  0
   -0.2843    0.1189   -0.8787 H   0  0  0  0  0  0  0  0  0  0  0  0
   -1.5559   -0.7882    1.7814 H   0  0  0  0  0  0  0  0  0  0  0  0
    4.7573   -0.6148   -1.1020 H   0  0  0  0  0  0  0  0  0  0  0  0
    5.0257    0.4480   -2.5045 H   0  0  0  0  0  0  0  0  0  0  0  0
    3.6275    4.3046    1.9099 H   0  0  0  0  0  0  0  0  0  0  0  0
    0.9564    3.7790    0.8263 H   0  0  0  0  0  0  0  0  0  0  0  0
    5.8909    2.1161   -1.3924 H   0  0  0  0  0  0  0  0  0  0  0  0
    2.7399   -1.1671   -2.0312 H   0  0  0  0  0  0  0  0  0  0  0  0
   -0.0102   -2.1182   -1.4129 H   0  0  0  0  0  0  0  0  0  0  0  0
   -0.4134   -2.4870    2.8659 H   0  0  0  0  0  0  0  0  0  0  0  0
   -4.8775   -1.7317   -0.5689 H   0  0  0  0  0  0  0  0  0  0  0  0
   -6.0291    2.4110   -0.6458 H   0  0  0  0  0  0  0  0  0  0  0  0
    1.0962   -4.4227    2.8415 H   0  0  0  0  0  0  0  0  0  0  0  0
   -2.7404    3.4981    0.0693 H   0  0  0  0  0  0  0  0  0  0  0  0
   -6.9304   -1.0274   -0.9782 H   0  0  0  0  0  0  0  0  0  0  0  0
    2.1867   -4.9059   -1.4949 H   0  0  0  0  0  0  0  0  0  0  0  0
    2.3433   -5.7646    1.6128 H   0  0  0  0  0  0  0  0  0  0  0  0
  1 16  1  0  0  0  0
  1 17  1  0  0  0  0
  2 16  1  0  0  0  0
  2 18  1  0  0  0  0
  3 13  1  0  0  0  0
  3 43  1  0  0  0  0
  4 14  1  0  0  0  0
  4 44  1  0  0  0  0
  5 15  1  0  0  0  0
  5 45  1  0  0  0  0
  6 19  1  0  0  0  0
  6 24  1  0  0  0  0
  7 20  1  0  0  0  0
  7 46  1  0  0  0  0
  8 21  2  0  0  0  0
  9 25  1  0  0  0  0
  9 52  1  0  0  0  0
 10 30  1  0  0  0  0
 10 53  1  0  0  0  0
 11 31  1  0  0  0  0
 11 54  1  0  0  0  0
 12 33  1  0  0  0  0
 12 55  1  0  0  0  0
 13 14  1  0  0  0  0
 13 15  1  0  0  0  0
 13 34  1  0  0  0  0
 14 16  1  0  0  0  0
 14 35  1  0  0  0  0
 15 17  1  0  0  0  0
 15 36  1  0  0  0  0
 16 37  1  0  0  0  0
 17 20  1  0  0  0  0
 17 38  1  0  0  0  0
 18 19  1  0  0  0  0
 18 21  1  0  0  0  0
 18 39  1  0  0  0  0
 19 22  1  0  0  0  0
 19 40  1  0  0  0  0
 20 41  1  0  0  0  0
 20 42  1  0  0  0  0
 21 23  1  0  0  0  0
 22 26  2  0  0  0  0
 22 27  1  0  0  0  0
 23 24  1  0  0  0  0
 23 25  2  0  0  0  0
 24 28  2  0  0  0  0
 25 29  1  0  0  0  0
 26 31  1  0  0  0  0
 26 47  1  0  0  0  0
 27 32  2  0  0  0  0
 27 48  1  0  0  0  0
 28 30  1  0  0  0  0
 28 49  1  0  0  0  0
 29 30  2  0  0  0  0
 29 50  1  0  0  0  0
 31 33  2  0  0  0  0
 32 33  1  0  0  0  0
 32 51  1  0  0  0  0
M  END
> <PUBCHEM_COMPOUND_CID>
3035567

> <PUBCHEM_CONFORMER_RMSD>
0.8

> <PUBCHEM_CONFORMER_DIVERSEORDER>
1
85
144
24
130
95
31
104
45
108
47
17
115
61
19
143
27
155
101
154
98
66
136
83
99
41
69
25
48
142
107
70
35
128
97
141
10
124
63
14
44
149
140
26
92
18
11
37
67
121
137
134
36
151
49
150
122
80
126
79
156
127
81
5
132
15
8
16
158
68
94
40
135
59
78
139
72
71
60
106
21
46
157
105
33
138
23
4
20
93
113
62
57
50
42
145
9
51
32
117
12
102
114
3
13
84
100
7
43
77
89
22
152
38
52
147
6
131
2
146
111
28
103
91
86
73
74
133
119
88
112
118
34
120
55
148
110
75
64
90
129
82
30
65
56
29
53
125
76
96
87
58
54
153
39
123
116
109

> <PUBCHEM_MMFF94_PARTIAL_CHARGES>
46
1 -0.56
10 -0.53
11 -0.53
12 -0.53
13 0.28
14 0.28
15 0.28
16 0.56
17 0.28
18 0.34
19 0.42
2 -0.56
20 0.28
21 0.42
22 -0.14
23 0.09
24 0.08
25 0.08
26 -0.15
27 -0.15
28 -0.15
29 -0.15
3 -0.68
30 0.08
31 0.08
32 -0.15
33 0.08
4 -0.68
43 0.4
44 0.4
45 0.4
46 0.4
47 0.15
48 0.15
49 0.15
5 -0.68
50 0.15
51 0.15
52 0.45
53 0.45
54 0.45
55 0.45
6 -0.36
7 -0.68
8 -0.57
9 -0.53

> <PUBCHEM_EFFECTIVE_ROTOR_COUNT>
5.8

> <PUBCHEM_PHARMACOPHORE_FEATURES>
20
1 1 acceptor
1 10 donor
1 11 donor
1 12 donor
1 2 acceptor
1 3 acceptor
1 3 donor
1 4 acceptor
1 4 donor
1 5 acceptor
1 5 donor
1 6 acceptor
1 7 acceptor
1 7 donor
1 8 acceptor
1 9 donor
6 1 13 14 15 16 17 rings
6 22 26 27 31 32 33 rings
6 23 24 25 28 29 30 rings
6 6 18 19 21 23 24 rings

> <PUBCHEM_HEAVY_ATOM_COUNT>
33

> <PUBCHEM_ATOM_DEF_STEREO_COUNT>
7

> <PUBCHEM_ATOM_UDEF_STEREO_COUNT>
0

> <PUBCHEM_BOND_DEF_STEREO_COUNT>
0

> <PUBCHEM_BOND_UDEF_STEREO_COUNT>
0

> <PUBCHEM_ISOTOPIC_ATOM_COUNT>
0

> <PUBCHEM_COMPONENT_COUNT>
1

> <PUBCHEM_CACTVS_TAUTO_COUNT>
210

> <PUBCHEM_CONFORMER_ID>
002E51AF00000001

> <PUBCHEM_MMFF94_ENERGY>
96.9748

> <PUBCHEM_FEATURE_SELFOVERLAP>
101.612

> <PUBCHEM_SHAPE_FINGERPRINT>
10305334 12 17117422034580339545
10653451 467 17764319731443581907
10675989 125 18340775840707951416
10721379 63 18266177227926277947
10764073 3 12687297065741106039
107951 10 17968661656451138026
1100329 8 17618783557769377401
11488393 25 18336835186685982683
12156800 1 15981962866873001862
12788726 201 17103694696453136698
13540713 5 18199463261164537561
138480 1 18050278181010198075
140371 6 17406829584643799933
14068700 675 17615410260295797998
14114211 68 18116739368490279093
15324884 4 17266950170662198344
15664445 248 17908143174954226983
15927050 60 18339637945511215487
15961568 22 17906159669368945682
18681886 176 18054224328269712302
20567600 347 18334855030457539059
21033648 29 18196648720996578945
21133410 230 17681594550590617882
21133665 82 18336262427828479960
22393880 68 18340767053262581029
23366157 5 18043806494619459619
23559900 14 18050268290470590115
3298306 158 18410578383388262638
4015057 19 17273713141972166192
4046055 25 17401482650412879375
5265222 85 18191876823447061748
59755656 215 18408321121135540007
6669772 16 18342170120129892598
6898599 12 17683537495264112676
9981440 41 18261954149792943747

> <PUBCHEM_SHAPE_MULTIPOLES>
608.69
10.42
6.41
1.58
10.87
7.03
-0.23
-9.35
-4.81
-6.93
2.18
-1.85
0.62
0.69

> <PUBCHEM_SHAPE_SELFOVERLAP>
1331.466

> <PUBCHEM_SHAPE_VOLUME>
325.6

> <PUBCHEM_COORDINATE_TYPE>
2
5
10

$$$$
