102505446
  -OEChem-09042010153D

 57 61  0     1  0  0  0  0  0999 V2000
   -2.0962   -0.5197    2.5623 O   0  0  0  0  0  0  0  0  0  0  0  0
    3.0880   -2.9116    0.3704 O   0  0  0  0  0  0  0  0  0  0  0  0
   -0.5794   -4.8650   -1.9883 O   0  0  0  0  0  0  0  0  0  0  0  0
    5.5993    1.7934    0.9870 O   0  0  0  0  0  0  0  0  0  0  0  0
    2.4680    2.3362   -2.5959 O   0  0  0  0  0  0  0  0  0  0  0  0
   -6.2444    0.3919   -1.6251 O   0  0  0  0  0  0  0  0  0  0  0  0
    4.9141    2.9329   -1.4426 O   0  0  0  0  0  0  0  0  0  0  0  0
   -6.3917    2.9189   -0.4771 O   0  0  0  0  0  0  0  0  0  0  0  0
   -0.0732   -0.0058    1.4499 C   0  0  2  0  0  0  0  0  0  0  0  0
   -1.0621   -0.5227    0.3961 C   0  0  2  0  0  0  0  0  0  0  0  0
    1.3271   -0.6025    1.1576 C   0  0  1  0  0  0  0  0  0  0  0  0
   -2.3723   -0.7191    1.1631 C   0  0  2  0  0  0  0  0  0  0  0  0
   -0.3780   -1.7769   -0.0732 C   0  0  0  0  0  0  0  0  0  0  0  0
   -0.6803   -0.5195    2.7519 C   0  0  0  0  0  0  0  0  0  0  0  0
    0.9639   -1.8099    0.3304 C   0  0  0  0  0  0  0  0  0  0  0  0
    2.2857    0.3423    0.4621 C   0  0  0  0  0  0  0  0  0  0  0  0
   -3.4459    0.2502    0.7224 C   0  0  0  0  0  0  0  0  0  0  0  0
   -0.9077   -2.7892   -0.8594 C   0  0  0  0  0  0  0  0  0  0  0  0
    1.7901   -2.8657   -0.0266 C   0  0  0  0  0  0  0  0  0  0  0  0
   -0.0815   -3.8550   -1.2212 C   0  0  0  0  0  0  0  0  0  0  0  0
    1.2578   -3.8937   -0.8065 C   0  0  0  0  0  0  0  0  0  0  0  0
    1.9373    0.9140   -0.7616 C   0  0  0  0  0  0  0  0  0  0  0  0
    3.5169    0.6404    1.0460 C   0  0  0  0  0  0  0  0  0  0  0  0
   -4.3624   -0.1238   -0.2603 C   0  0  0  0  0  0  0  0  0  0  0  0
   -3.5204    1.5180    1.2993 C   0  0  0  0  0  0  0  0  0  0  0  0
    4.3998    1.5104    0.4062 C   0  0  0  0  0  0  0  0  0  0  0  0
    2.8202    1.7840   -1.4014 C   0  0  0  0  0  0  0  0  0  0  0  0
   -5.3536    0.7699   -0.6661 C   0  0  0  0  0  0  0  0  0  0  0  0
   -4.5113    2.4118    0.8932 C   0  0  0  0  0  0  0  0  0  0  0  0
    4.0514    2.0822   -0.8174 C   0  0  0  0  0  0  0  0  0  0  0  0
   -5.4280    2.0378   -0.0894 C   0  0  0  0  0  0  0  0  0  0  0  0
    5.8772    1.1670    2.2378 C   0  0  0  0  0  0  0  0  0  0  0  0
    1.1919    1.9789   -3.1236 C   0  0  0  0  0  0  0  0  0  0  0  0
   -0.0754    1.0913    1.4775 H   0  0  0  0  0  0  0  0  0  0  0  0
   -1.1536    0.1588   -0.4575 H   0  0  0  0  0  0  0  0  0  0  0  0
    1.7739   -0.9435    2.1008 H   0  0  0  0  0  0  0  0  0  0  0  0
   -2.7594   -1.7409    1.0690 H   0  0  0  0  0  0  0  0  0  0  0  0
   -0.3736   -1.5445    2.9894 H   0  0  0  0  0  0  0  0  0  0  0  0
   -0.4260    0.1178    3.6040 H   0  0  0  0  0  0  0  0  0  0  0  0
   -1.9407   -2.7531   -1.1906 H   0  0  0  0  0  0  0  0  0  0  0  0
    1.8873   -4.7317   -1.0979 H   0  0  0  0  0  0  0  0  0  0  0  0
    0.9758    0.6531   -1.1828 H   0  0  0  0  0  0  0  0  0  0  0  0
    3.7355    0.1674    1.9972 H   0  0  0  0  0  0  0  0  0  0  0  0
   -4.3017   -1.1119   -0.7102 H   0  0  0  0  0  0  0  0  0  0  0  0
   -2.8118    1.8377    2.0582 H   0  0  0  0  0  0  0  0  0  0  0  0
    3.4970   -3.7222    0.0218 H   0  0  0  0  0  0  0  0  0  0  0  0
   -4.5564    3.3973    1.3490 H   0  0  0  0  0  0  0  0  0  0  0  0
    0.1241   -5.5178   -2.1461 H   0  0  0  0  0  0  0  0  0  0  0  0
   -6.0401   -0.5162   -1.9074 H   0  0  0  0  0  0  0  0  0  0  0  0
    5.7120    3.0198   -0.8925 H   0  0  0  0  0  0  0  0  0  0  0  0
   -6.2891    3.7433    0.0287 H   0  0  0  0  0  0  0  0  0  0  0  0
    5.1735    1.4855    3.0145 H   0  0  0  0  0  0  0  0  0  0  0  0
    5.9285    0.0770    2.1413 H   0  0  0  0  0  0  0  0  0  0  0  0
    6.8703    1.5041    2.5527 H   0  0  0  0  0  0  0  0  0  0  0  0
    1.1328    0.9085   -3.3494 H   0  0  0  0  0  0  0  0  0  0  0  0
    0.3766    2.3154   -2.4740 H   0  0  0  0  0  0  0  0  0  0  0  0
    1.0776    2.5093   -4.0748 H   0  0  0  0  0  0  0  0  0  0  0  0
  1 12  1  0  0  0  0
  1 14  1  0  0  0  0
  2 19  1  0  0  0  0
  2 46  1  0  0  0  0
  3 20  1  0  0  0  0
  3 48  1  0  0  0  0
  4 26  1  0  0  0  0
  4 32  1  0  0  0  0
  5 27  1  0  0  0  0
  5 33  1  0  0  0  0
  6 28  1  0  0  0  0
  6 49  1  0  0  0  0
  7 30  1  0  0  0  0
  7 50  1  0  0  0  0
  8 31  1  0  0  0  0
  8 51  1  0  0  0  0
  9 10  1  0  0  0  0
  9 11  1  0  0  0  0
  9 14  1  0  0  0  0
  9 34  1  0  0  0  0
 10 12  1  0  0  0  0
 10 13  1  0  0  0  0
 10 35  1  0  0  0  0
 11 15  1  0  0  0  0
 11 16  1  0  0  0  0
 11 36  1  0  0  0  0
 12 17  1  0  0  0  0
 12 37  1  0  0  0  0
 13 15  2  0  0  0  0
 13 18  1  0  0  0  0
 14 38  1  0  0  0  0
 14 39  1  0  0  0  0
 15 19  1  0  0  0  0
 16 22  2  0  0  0  0
 16 23  1  0  0  0  0
 17 24  2  0  0  0  0
 17 25  1  0  0  0  0
 18 20  2  0  0  0  0
 18 40  1  0  0  0  0
 19 21  2  0  0  0  0
 20 21  1  0  0  0  0
 21 41  1  0  0  0  0
 22 27  1  0  0  0  0
 22 42  1  0  0  0  0
 23 26  2  0  0  0  0
 23 43  1  0  0  0  0
 24 28  1  0  0  0  0
 24 44  1  0  0  0  0
 25 29  2  0  0  0  0
 25 45  1  0  0  0  0
 26 30  1  0  0  0  0
 27 30  2  0  0  0  0
 28 31  2  0  0  0  0
 29 31  1  0  0  0  0
 29 47  1  0  0  0  0
 32 52  1  0  0  0  0
 32 53  1  0  0  0  0
 32 54  1  0  0  0  0
 33 55  1  0  0  0  0
 33 56  1  0  0  0  0
 33 57  1  0  0  0  0
M  END
> <PUBCHEM_COMPOUND_CID>
102505446

> <PUBCHEM_CONFORMER_RMSD>
0.8

> <PUBCHEM_CONFORMER_DIVERSEORDER>
2
13
18
12
23
7
20
14
19
15
4
8
21
10
17
11
5
9
3
1
6
22
16

> <PUBCHEM_MMFF94_PARTIAL_CHARGES>
44
1 -0.56
10 0.14
11 0.29
12 0.42
13 -0.14
14 0.28
15 -0.14
16 -0.14
17 -0.14
18 -0.15
19 0.08
2 -0.53
20 0.08
21 -0.15
22 -0.15
23 -0.15
24 -0.15
25 -0.15
26 0.08
27 0.08
28 0.08
29 -0.15
3 -0.53
30 0.08
31 0.08
32 0.28
33 0.28
4 -0.36
40 0.15
41 0.15
42 0.15
43 0.15
44 0.15
45 0.15
46 0.45
47 0.15
48 0.45
49 0.45
5 -0.36
50 0.45
51 0.45
6 -0.53
7 -0.53
8 -0.53

> <PUBCHEM_EFFECTIVE_ROTOR_COUNT>
4.8

> <PUBCHEM_PHARMACOPHORE_FEATURES>
13
1 1 acceptor
1 2 donor
1 3 donor
1 4 acceptor
1 5 acceptor
1 6 donor
1 7 donor
1 8 donor
5 1 9 10 12 14 rings
5 9 10 11 13 15 rings
6 13 15 18 19 20 21 rings
6 16 22 23 26 27 30 rings
6 17 24 25 28 29 31 rings

> <PUBCHEM_HEAVY_ATOM_COUNT>
33

> <PUBCHEM_ATOM_DEF_STEREO_COUNT>
4

> <PUBCHEM_ATOM_UDEF_STEREO_COUNT>
0

> <PUBCHEM_BOND_DEF_STEREO_COUNT>
0

> <PUBCHEM_BOND_UDEF_STEREO_COUNT>
0

> <PUBCHEM_ISOTOPIC_ATOM_COUNT>
0

> <PUBCHEM_COMPONENT_COUNT>
1

> <PUBCHEM_CACTVS_TAUTO_COUNT>
998

> <PUBCHEM_CONFORMER_ID>
061C1BE600000002

> <PUBCHEM_MMFF94_ENERGY>
118.496

> <PUBCHEM_FEATURE_SELFOVERLAP>
66.45

> <PUBCHEM_SHAPE_FINGERPRINT>
10673678 19 18342740676792090017
10721379 63 17771360668693882391
10764073 3 16732969908647793038
10930396 42 17973427825401259530
11135609 127 18127395766937069321
11513181 2 18195247707360199421
11578080 2 16737254701039811267
12160290 23 17623599809266883658
12293681 160 17346313812690752019
12403259 118 18041281083455279401
12422481 6 17968366875871426776
12608794 3 18050815902832897586
12633257 1 16660642994190213776
12788726 201 17760937641759717854
13103583 49 8214148490764723661
133893 2 18051726293679964866
14068700 675 17556582041718209066
14294032 229 18197230345794512827
15163728 17 18338536182723866837
15238133 3 16950287325616510140
15420108 30 18339629106040992594
15439362 3 18336832974386908214
15475509 35 10807633628904107653
17980427 23 17967812790392660525
17980427 26 17603853503544118522
19304144 158 18336253562837399213
19309040 13 18197520466878390037
20642791 105 18126554863479193658
21033648 144 18334010554404342645
21304303 282 18058432374191097254
21860390 5 17894919498829574103
22149856 69 18269858462514377513
23559900 14 18115319851539287171
25223398 141 18195517315305308747
2838139 119 18334849537416368473
3493558 16 17766557950027059464
3633792 109 17988078886074320002
376196 1 18187367657473231185
4017518 198 18202569467523491358
44802255 64 18122931951564686964
46194498 28 18121780531036108541
469060 322 17908443676809938035
474 4 17967816037783581881
5081480 168 17831324721563790061
513532 50 18202006482550143116
5951187 136 17248331740973928245
6287921 2 18193845834213538565
6523845 18 17910434780339324722
9981440 41 18411422825793546667

> <PUBCHEM_SHAPE_MULTIPOLES>
632.17
11.98
4.66
2.39
8.5
5.42
-0.37
-14.27
0.34
-1.49
-3.12
-1.13
-0.82
-0.81

> <PUBCHEM_SHAPE_SELFOVERLAP>
1412.146

> <PUBCHEM_SHAPE_VOLUME>
338.7

> <PUBCHEM_COORDINATE_TYPE>
2
5
10

$$$$
