81101
  -OEChem-09042012283D

 41 40  0     0  0  0  0  0  0999 V2000
   -3.6037   -0.3430    0.0391 O   0  0  0  0  0  0  0  0  0  0  0  0
    3.6035   -0.3440    0.0075 O   0  0  0  0  0  0  0  0  0  0  0  0
   -2.5520    1.7105    0.0221 O   0  0  0  0  0  0  0  0  0  0  0  0
    2.5507    1.7076   -0.0683 O   0  0  0  0  0  0  0  0  0  0  0  0
    0.0002    0.5102    0.0602 C   0  0  0  0  0  0  0  0  0  0  0  0
   -1.2615   -0.3503    0.0790 C   0  0  0  0  0  0  0  0  0  0  0  0
    1.2614   -0.3511    0.0512 C   0  0  0  0  0  0  0  0  0  0  0  0
   -5.9712   -0.7516    0.0045 C   0  0  0  0  0  0  0  0  0  0  0  0
    5.9711   -0.7521   -0.0158 C   0  0  0  0  0  0  0  0  0  0  0  0
   -4.8781    0.3076    0.0055 C   0  0  0  0  0  0  0  0  0  0  0  0
    4.8775    0.3062   -0.0452 C   0  0  0  0  0  0  0  0  0  0  0  0
   -7.3621   -0.1260   -0.0468 C   0  0  0  0  0  0  0  0  0  0  0  0
    7.3623   -0.1260   -0.0535 C   0  0  0  0  0  0  0  0  0  0  0  0
   -2.5191    0.4878    0.0438 C   0  0  0  0  0  0  0  0  0  0  0  0
    2.5185    0.4861   -0.0114 C   0  0  0  0  0  0  0  0  0  0  0  0
   -8.4493   -1.1878   -0.0911 C   0  0  0  0  0  0  0  0  0  0  0  0
    8.4517   -1.1840    0.0196 C   0  0  0  0  0  0  0  0  0  0  0  0
    0.0102    1.1767    0.9321 H   0  0  0  0  0  0  0  0  0  0  0  0
   -0.0097    1.1614   -0.8234 H   0  0  0  0  0  0  0  0  0  0  0  0
   -1.2697   -1.0120   -0.7945 H   0  0  0  0  0  0  0  0  0  0  0  0
   -1.2805   -0.9594    0.9895 H   0  0  0  0  0  0  0  0  0  0  0  0
    1.2985   -0.9594    0.9619 H   0  0  0  0  0  0  0  0  0  0  0  0
    1.2515   -1.0137   -0.8215 H   0  0  0  0  0  0  0  0  0  0  0  0
   -5.8696   -1.3812    0.8972 H   0  0  0  0  0  0  0  0  0  0  0  0
   -5.8241   -1.4214   -0.8521 H   0  0  0  0  0  0  0  0  0  0  0  0
    5.8388   -1.4369   -0.8629 H   0  0  0  0  0  0  0  0  0  0  0  0
    5.8553   -1.3661    0.8862 H   0  0  0  0  0  0  0  0  0  0  0  0
   -4.9787    0.9521    0.8866 H   0  0  0  0  0  0  0  0  0  0  0  0
   -4.9460    0.9206   -0.9008 H   0  0  0  0  0  0  0  0  0  0  0  0
    4.9461    0.8935   -0.9683 H   0  0  0  0  0  0  0  0  0  0  0  0
    4.9767    0.9752    0.8176 H   0  0  0  0  0  0  0  0  0  0  0  0
   -7.4507    0.5138   -0.9326 H   0  0  0  0  0  0  0  0  0  0  0  0
   -7.5159    0.5121    0.8311 H   0  0  0  0  0  0  0  0  0  0  0  0
    7.4815    0.5686    0.7862 H   0  0  0  0  0  0  0  0  0  0  0  0
    7.4842    0.4549   -0.9750 H   0  0  0  0  0  0  0  0  0  0  0  0
   -8.4087   -1.8279    0.7960 H   0  0  0  0  0  0  0  0  0  0  0  0
   -9.4370   -0.7176   -0.1260 H   0  0  0  0  0  0  0  0  0  0  0  0
   -8.3432   -1.8214   -0.9775 H   0  0  0  0  0  0  0  0  0  0  0  0
    8.3805   -1.8789   -0.8232 H   0  0  0  0  0  0  0  0  0  0  0  0
    9.4395   -0.7136   -0.0104 H   0  0  0  0  0  0  0  0  0  0  0  0
    8.3778   -1.7600    0.9474 H   0  0  0  0  0  0  0  0  0  0  0  0
  1 10  1  0  0  0  0
  1 14  1  0  0  0  0
  2 11  1  0  0  0  0
  2 15  1  0  0  0  0
  3 14  2  0  0  0  0
  4 15  2  0  0  0  0
  5  6  1  0  0  0  0
  5  7  1  0  0  0  0
  5 18  1  0  0  0  0
  5 19  1  0  0  0  0
  6 14  1  0  0  0  0
  6 20  1  0  0  0  0
  6 21  1  0  0  0  0
  7 15  1  0  0  0  0
  7 22  1  0  0  0  0
  7 23  1  0  0  0  0
  8 10  1  0  0  0  0
  8 12  1  0  0  0  0
  8 24  1  0  0  0  0
  8 25  1  0  0  0  0
  9 11  1  0  0  0  0
  9 13  1  0  0  0  0
  9 26  1  0  0  0  0
  9 27  1  0  0  0  0
 10 28  1  0  0  0  0
 10 29  1  0  0  0  0
 11 30  1  0  0  0  0
 11 31  1  0  0  0  0
 12 16  1  0  0  0  0
 12 32  1  0  0  0  0
 12 33  1  0  0  0  0
 13 17  1  0  0  0  0
 13 34  1  0  0  0  0
 13 35  1  0  0  0  0
 16 36  1  0  0  0  0
 16 37  1  0  0  0  0
 16 38  1  0  0  0  0
 17 39  1  0  0  0  0
 17 40  1  0  0  0  0
 17 41  1  0  0  0  0
M  END
> <PUBCHEM_COMPOUND_CID>
81101

> <PUBCHEM_CONFORMER_RMSD>
1.2

> <PUBCHEM_CONFORMER_DIVERSEORDER>
1
9
49
53
6
4
46
32
22
34
52
8
50
20
41
2
44
29
43
35
42
16
7
37
19
48
40
36
31
13
14
10
47
45
12
11
26
15
25
39
3
38
27
5
30
51
24
23
28
21
18
17
33

> <PUBCHEM_MMFF94_PARTIAL_CHARGES>
10
1 -0.43
10 0.28
11 0.28
14 0.66
15 0.66
2 -0.43
3 -0.57
4 -0.57
6 0.06
7 0.06

> <PUBCHEM_EFFECTIVE_ROTOR_COUNT>
12

> <PUBCHEM_PHARMACOPHORE_FEATURES>
4
1 16 hydrophobe
1 17 hydrophobe
1 3 acceptor
1 4 acceptor

> <PUBCHEM_HEAVY_ATOM_COUNT>
17

> <PUBCHEM_ATOM_DEF_STEREO_COUNT>
0

> <PUBCHEM_ATOM_UDEF_STEREO_COUNT>
0

> <PUBCHEM_BOND_DEF_STEREO_COUNT>
0

> <PUBCHEM_BOND_UDEF_STEREO_COUNT>
0

> <PUBCHEM_ISOTOPIC_ATOM_COUNT>
0

> <PUBCHEM_COMPONENT_COUNT>
1

> <PUBCHEM_CACTVS_TAUTO_COUNT>
1

> <PUBCHEM_CONFORMER_ID>
00013CCD00000001

> <PUBCHEM_MMFF94_ENERGY>
5.108

> <PUBCHEM_FEATURE_SELFOVERLAP>
20.297

> <PUBCHEM_SHAPE_FINGERPRINT>
106641 1 17846493747605939642
11315181 36 12973893593557384509
11638347 137 15626228992536312494
12091667 2 17676207957916970529
13073987 5 16056611893446824010
13533116 47 17095509674461464793
13885169 127 18341332202302366185
14123256 10 18259703393418992419
14251764 18 18411705383191634024
14251764 46 13901907812975230558
14729087 3 10303819770147672947
15048467 5 9079115557245110159
155225 1 9007053570347714646
15690457 1 18343861125789828862
15716309 27 17846495945695518518
16120349 18 18113901615469419420
17834076 25 8142085359785872841
18006028 8 18272369776034831057
20735858 18 16989126448285332238
21130983 4 9655576318233530694
21150785 3 15864070970472745270
21267235 1 18410857663467756489
21315763 28 18411138034622177736
22224240 67 12751233701572166100
23035841 295 18341613737756570663
232437 2 18411139138423569527
23521765 1 18341895190345782794
23559900 14 18189616214380879377
246663 6 18342178868698868511
28498 318 18408039593828034854
33532 11 18411135801951619654
33684 2 17967531268313675866
4325135 7 18410292510686696991
59682541 35 17703785942560797842
59755656 520 17240760722605892779
8209 1 17967251996454662990

> <PUBCHEM_SHAPE_MULTIPOLES>
326.37
26.69
1.19
0.6
0.03
0.24
0
-11.82
-0.68
-0.01
-0.01
0
-0.02
-0.09

> <PUBCHEM_SHAPE_SELFOVERLAP>
606.55

> <PUBCHEM_SHAPE_VOLUME>
204.5

> <PUBCHEM_COORDINATE_TYPE>
2
5
10

$$$$
