11623165
  -OEChem-09042007093D

 30 32  0     0  0  0  0  0  0999 V2000
    0.2714    0.5527    0.0335 O   0  0  0  0  0  0  0  0  0  0  0  0
    4.2608   -1.9292   -0.0887 O   0  0  0  0  0  0  0  0  0  0  0  0
    1.3661   -2.8084   -0.1560 O   0  0  0  0  0  0  0  0  0  0  0  0
    4.5238    2.8431    0.1899 O   0  0  0  0  0  0  0  0  0  0  0  0
   -6.1382    1.3981    0.0467 O   0  0  0  0  0  0  0  0  0  0  0  0
    2.2778   -0.5907   -0.0226 C   0  0  0  0  0  0  0  0  0  0  0  0
    1.6439    0.6486    0.0457 C   0  0  0  0  0  0  0  0  0  0  0  0
   -0.0111   -0.8057   -0.0464 C   0  0  0  0  0  0  0  0  0  0  0  0
    1.2356   -1.6075   -0.0861 C   0  0  0  0  0  0  0  0  0  0  0  0
    3.6502   -0.7221   -0.0229 C   0  0  0  0  0  0  0  0  0  0  0  0
    2.3690    1.8185    0.1178 C   0  0  0  0  0  0  0  0  0  0  0  0
   -1.2399   -1.3232   -0.0823 C   0  0  0  0  0  0  0  0  0  0  0  0
   -2.5024   -0.6218   -0.0484 C   0  0  0  0  0  0  0  0  0  0  0  0
    4.3977    0.4557    0.0497 C   0  0  0  0  0  0  0  0  0  0  0  0
    3.7638    1.7132    0.1197 C   0  0  0  0  0  0  0  0  0  0  0  0
   -3.6320   -1.2252    0.5165 C   0  0  0  0  0  0  0  0  0  0  0  0
   -2.6088    0.6684   -0.5811 C   0  0  0  0  0  0  0  0  0  0  0  0
   -4.8510   -0.5477    0.5484 C   0  0  0  0  0  0  0  0  0  0  0  0
   -3.8278    1.3456   -0.5491 C   0  0  0  0  0  0  0  0  0  0  0  0
   -4.9489    0.7376    0.0157 C   0  0  0  0  0  0  0  0  0  0  0  0
    1.8778    2.7837    0.1714 H   0  0  0  0  0  0  0  0  0  0  0  0
   -1.3299   -2.4082   -0.1237 H   0  0  0  0  0  0  0  0  0  0  0  0
    5.4842    0.3966    0.0524 H   0  0  0  0  0  0  0  0  0  0  0  0
   -3.5756   -2.2261    0.9385 H   0  0  0  0  0  0  0  0  0  0  0  0
   -1.7751    1.1673   -1.0659 H   0  0  0  0  0  0  0  0  0  0  0  0
   -5.7170   -1.0323    0.9914 H   0  0  0  0  0  0  0  0  0  0  0  0
   -3.9005    2.3435   -0.9733 H   0  0  0  0  0  0  0  0  0  0  0  0
    3.5849   -2.6265   -0.1329 H   0  0  0  0  0  0  0  0  0  0  0  0
    5.4634    2.5920    0.1806 H   0  0  0  0  0  0  0  0  0  0  0  0
   -6.8033    0.8298    0.4719 H   0  0  0  0  0  0  0  0  0  0  0  0
  1  7  1  0  0  0  0
  1  8  1  0  0  0  0
  2 10  1  0  0  0  0
  2 28  1  0  0  0  0
  3  9  2  0  0  0  0
  4 15  1  0  0  0  0
  4 29  1  0  0  0  0
  5 20  1  0  0  0  0
  5 30  1  0  0  0  0
  6  7  1  0  0  0  0
  6  9  1  0  0  0  0
  6 10  2  0  0  0  0
  7 11  2  0  0  0  0
  8  9  1  0  0  0  0
  8 12  2  0  0  0  0
 10 14  1  0  0  0  0
 11 15  1  0  0  0  0
 11 21  1  0  0  0  0
 12 13  1  0  0  0  0
 12 22  1  0  0  0  0
 13 16  2  0  0  0  0
 13 17  1  0  0  0  0
 14 15  2  0  0  0  0
 14 23  1  0  0  0  0
 16 18  1  0  0  0  0
 16 24  1  0  0  0  0
 17 19  2  0  0  0  0
 17 25  1  0  0  0  0
 18 20  2  0  0  0  0
 18 26  1  0  0  0  0
 19 20  1  0  0  0  0
 19 27  1  0  0  0  0
M  END
> <PUBCHEM_COMPOUND_CID>
11623165

> <PUBCHEM_CONFORMER_RMSD>
0.6

> <PUBCHEM_CONFORMER_DIVERSEORDER>
1

> <PUBCHEM_MMFF94_PARTIAL_CHARGES>
30
1 -0.16
10 0.08
11 -0.15
12 -0.18
13 0.03
14 -0.15
15 0.08
16 -0.15
17 -0.15
18 -0.15
19 -0.15
2 -0.53
20 0.08
21 0.15
22 0.15
23 0.15
24 0.15
25 0.15
26 0.15
27 0.15
28 0.45
29 0.45
3 -0.57
30 0.45
4 -0.53
5 -0.53
6 0.09
7 0.08
8 0.09
9 0.47

> <PUBCHEM_EFFECTIVE_ROTOR_COUNT>
1.2

> <PUBCHEM_PHARMACOPHORE_FEATURES>
8
1 1 acceptor
1 2 donor
1 3 acceptor
1 4 donor
1 5 donor
5 1 6 7 8 9 rings
6 13 16 17 18 19 20 rings
6 6 7 10 11 14 15 rings

> <PUBCHEM_HEAVY_ATOM_COUNT>
20

> <PUBCHEM_ATOM_DEF_STEREO_COUNT>
0

> <PUBCHEM_ATOM_UDEF_STEREO_COUNT>
0

> <PUBCHEM_BOND_DEF_STEREO_COUNT>
1

> <PUBCHEM_BOND_UDEF_STEREO_COUNT>
0

> <PUBCHEM_ISOTOPIC_ATOM_COUNT>
0

> <PUBCHEM_COMPONENT_COUNT>
1

> <PUBCHEM_CACTVS_TAUTO_COUNT>
57

> <PUBCHEM_CONFORMER_ID>
00B15AFD00000001

> <PUBCHEM_MMFF94_ENERGY>
58.9686

> <PUBCHEM_FEATURE_SELFOVERLAP>
40.701

> <PUBCHEM_SHAPE_FINGERPRINT>
10411042 1 17763182441125422094
10608611 8 18408038498837954815
11405975 8 18335419054115880867
11471102 20 18412824668421520942
11578080 2 13841991077570717796
11595378 159 16515672313185522421
12107183 9 17620760488239088747
12236239 1 17561079177524800231
12403259 415 18336835272210235865
12507560 40 18335706065679845651
12730499 353 18408893919000837987
13081056 2 18408040702050793077
13167372 99 18200880552747834433
13675066 3 18259989296570152307
14341114 176 18334583434169294769
14790565 3 17903363945974715732
15188451 53 15792299340438252339
15196674 1 18410292532024103845
17844677 252 18411708660030030849
1813 80 16443063910971442605
18186145 218 18201165437674967334
19784866 9 18412260623145905426
200 152 18060134337023838971
20157964 124 18340202999897592717
20645477 56 18187085014839967327
20645477 70 18272934890662377798
21033650 10 14620256142327560082
21065198 57 18407761434734953155
21065199 12 18261396675986088891
21267235 1 18339932510619465702
21452121 103 18412256264434517040
21652331 79 18408884053307958613
22854114 59 18409450306064518939
23402655 69 18272931647819267525
23559900 14 18340485573859008002
335352 9 18411418380676637206
350125 39 18409448077435831028
3545911 37 18335423439773043613
4073 2 18040722514426756267
4214541 1 18409449185310208731
474 4 18411138056101951384
495365 180 17632006550982089538
5104073 3 18334296474455985971
602551 16 16298684870359569771
633830 44 18410849975465896934
77779 3 18409730677218862203
7808743 9 17977100485857326520
8272917 22 18342741780124347374
90127 26 18334303071378052507
9709674 26 18409173207770954259
9999458 23 18335702719963931246

> <PUBCHEM_SHAPE_MULTIPOLES>
382.24
11.8
2.39
0.66
8.35
0.04
0
4.9
-0.79
-2.24
0.01
0.23
0.01
0.63

> <PUBCHEM_SHAPE_SELFOVERLAP>
856.827

> <PUBCHEM_SHAPE_VOLUME>
203.3

> <PUBCHEM_COORDINATE_TYPE>
2
5
10

$$$$
