102132636
  -OEChem-09042010343D

 30 31  0     0  0  0  0  0  0999 V2000
    2.5281    1.9370   -0.6132 O   0  0  0  0  0  0  0  0  0  0  0  0
    5.2024    1.2713   -0.7379 O   0  0  0  0  0  0  0  0  0  0  0  0
   -5.0575   -1.9346   -0.6284 O   0  0  0  0  0  0  0  0  0  0  0  0
   -4.0046    2.5220    0.7184 O   0  0  0  0  0  0  0  0  0  0  0  0
    2.0195   -0.2224    0.2961 C   0  0  0  0  0  0  0  0  0  0  0  0
   -1.8261   -0.2911   -0.1340 C   0  0  0  0  0  0  0  0  0  0  0  0
    0.5999    0.0951    0.3761 C   0  0  0  0  0  0  0  0  0  0  0  0
   -0.3888   -0.6020   -0.2293 C   0  0  0  0  0  0  0  0  0  0  0  0
    2.9390    0.7046   -0.1947 C   0  0  0  0  0  0  0  0  0  0  0  0
   -2.2399    0.9837    0.2519 C   0  0  0  0  0  0  0  0  0  0  0  0
   -2.7729   -1.2719   -0.4299 C   0  0  0  0  0  0  0  0  0  0  0  0
    2.4538   -1.4782    0.7205 C   0  0  0  0  0  0  0  0  0  0  0  0
    4.2929    0.3760   -0.2609 C   0  0  0  0  0  0  0  0  0  0  0  0
   -4.1334   -0.9778   -0.3398 C   0  0  0  0  0  0  0  0  0  0  0  0
   -3.6005    1.2779    0.3418 C   0  0  0  0  0  0  0  0  0  0  0  0
    3.8078   -1.8068    0.6541 C   0  0  0  0  0  0  0  0  0  0  0  0
   -4.5471    0.2971    0.0461 C   0  0  0  0  0  0  0  0  0  0  0  0
    4.7274   -0.8798    0.1633 C   0  0  0  0  0  0  0  0  0  0  0  0
    0.3806    0.9583    0.9985 H   0  0  0  0  0  0  0  0  0  0  0  0
   -0.1354   -1.4732   -0.8302 H   0  0  0  0  0  0  0  0  0  0  0  0
   -1.5284    1.7756    0.4680 H   0  0  0  0  0  0  0  0  0  0  0  0
   -2.4550   -2.2681   -0.7301 H   0  0  0  0  0  0  0  0  0  0  0  0
    1.7552   -2.2145    1.1111 H   0  0  0  0  0  0  0  0  0  0  0  0
    4.1463   -2.7842    0.9855 H   0  0  0  0  0  0  0  0  0  0  0  0
   -5.6075    0.5264    0.1163 H   0  0  0  0  0  0  0  0  0  0  0  0
    5.7792   -1.1492    0.1175 H   0  0  0  0  0  0  0  0  0  0  0  0
    1.5606    2.0067   -0.5992 H   0  0  0  0  0  0  0  0  0  0  0  0
    6.0878    0.8697   -0.7090 H   0  0  0  0  0  0  0  0  0  0  0  0
   -4.5963   -2.7542   -0.8767 H   0  0  0  0  0  0  0  0  0  0  0  0
   -3.2208    3.0728    0.8860 H   0  0  0  0  0  0  0  0  0  0  0  0
  1  9  1  0  0  0  0
  1 27  1  0  0  0  0
  2 13  1  0  0  0  0
  2 28  1  0  0  0  0
  3 14  1  0  0  0  0
  3 29  1  0  0  0  0
  4 15  1  0  0  0  0
  4 30  1  0  0  0  0
  5  7  1  0  0  0  0
  5  9  2  0  0  0  0
  5 12  1  0  0  0  0
  6  8  1  0  0  0  0
  6 10  2  0  0  0  0
  6 11  1  0  0  0  0
  7  8  2  0  0  0  0
  7 19  1  0  0  0  0
  8 20  1  0  0  0  0
  9 13  1  0  0  0  0
 10 15  1  0  0  0  0
 10 21  1  0  0  0  0
 11 14  2  0  0  0  0
 11 22  1  0  0  0  0
 12 16  2  0  0  0  0
 12 23  1  0  0  0  0
 13 18  2  0  0  0  0
 14 17  1  0  0  0  0
 15 17  2  0  0  0  0
 16 18  1  0  0  0  0
 16 24  1  0  0  0  0
 17 25  1  0  0  0  0
 18 26  1  0  0  0  0
M  END
> <PUBCHEM_COMPOUND_CID>
102132636

> <PUBCHEM_CONFORMER_RMSD>
0.6

> <PUBCHEM_CONFORMER_DIVERSEORDER>
1
2
4
3

> <PUBCHEM_MMFF94_PARTIAL_CHARGES>
30
1 -0.53
10 -0.15
11 -0.15
12 -0.15
13 0.08
14 0.08
15 0.08
16 -0.15
17 -0.15
18 -0.15
19 0.15
2 -0.53
20 0.15
21 0.15
22 0.15
23 0.15
24 0.15
25 0.15
26 0.15
27 0.45
28 0.45
29 0.45
3 -0.53
30 0.45
4 -0.53
5 0.03
6 0.03
7 -0.18
8 -0.18
9 0.08

> <PUBCHEM_EFFECTIVE_ROTOR_COUNT>
2

> <PUBCHEM_PHARMACOPHORE_FEATURES>
6
1 1 donor
1 2 donor
1 3 donor
1 4 donor
6 5 9 12 13 16 18 rings
6 6 10 11 14 15 17 rings

> <PUBCHEM_HEAVY_ATOM_COUNT>
18

> <PUBCHEM_ATOM_DEF_STEREO_COUNT>
0

> <PUBCHEM_ATOM_UDEF_STEREO_COUNT>
0

> <PUBCHEM_BOND_DEF_STEREO_COUNT>
1

> <PUBCHEM_BOND_UDEF_STEREO_COUNT>
0

> <PUBCHEM_ISOTOPIC_ATOM_COUNT>
0

> <PUBCHEM_COMPONENT_COUNT>
1

> <PUBCHEM_CACTVS_TAUTO_COUNT>
85

> <PUBCHEM_CONFORMER_ID>
06166B9C00000001

> <PUBCHEM_MMFF94_ENERGY>
53.6446

> <PUBCHEM_FEATURE_SELFOVERLAP>
30.453

> <PUBCHEM_SHAPE_FINGERPRINT>
10014705 185 18186796938319421621
10366900 7 17530966899371347768
10595046 47 18410292540355621102
10616163 171 18341049709091787607
10912923 1 18335136475306084402
11471102 20 18186519917271009574
12107183 9 17833830465197119755
12236239 1 18409730659732966462
12670546 56 18412538825331090981
12916754 54 18334289868838410543
13073987 5 18411417306559974386
13167823 11 18411134727507941795
13675066 3 17703781496921454066
13760787 19 18412544292866838723
14341114 176 18335427867520510811
14528608 73 18335423495517960892
15196674 1 18410573968193238480
15239154 128 18410575071905095960
15250474 111 18338221713624662003
17492 89 18412545383968555615
17834072 33 18408884048749058774
17844677 252 18412832390645956200
18186145 218 17385441007733124074
18681886 176 18272647970410680802
19422 9 18409727348497979531
200 152 18410570717061341899
20281475 54 18337100185856675082
20300324 65 18413388756973662475
20612939 158 18040719165011245238
20645477 70 18335137571040150942
21065198 48 18409446968574340523
21267235 1 18410863169705611179
22646028 1 18411415111562725442
2297311 6 17846789532912539997
23175994 123 15913325806163795803
23402539 116 18342450448608798319
23402655 69 18409731751145218068
23557571 272 17846506932343382325
23559900 14 18341320202126694681
29717793 49 18343579612290106254
300161 21 18335413560741711737
312423 11 18335710454904216215
34797466 226 17274267270173413852
4214541 1 18411698755803732777
474 4 17750238165640332852
4990 188 18131077017507220414
5104073 3 18409446968695556810
542803 24 18273496766820798458
543358 83 18335987476369080098
573450 72 18340761555487787427
633830 44 17968098577384752202
67856867 119 18338228375297695080
77779 3 18410573968024498434
8272917 22 18337676300254324990
9709674 26 18410580569474303979
9981440 41 17398671688975622728

> <PUBCHEM_SHAPE_MULTIPOLES>
346.95
12.16
1.99
0.78
0.03
0.36
-0.02
-0.18
0.83
0.77
-0.07
-0.09
0
-1.74

> <PUBCHEM_SHAPE_SELFOVERLAP>
752.513

> <PUBCHEM_SHAPE_VOLUME>
189.9

> <PUBCHEM_COORDINATE_TYPE>
2
5
10

$$$$
