520710
  -OEChem-09042012033D

 32 31  0     0  0  0  0  0  0999 V2000
   -2.5423    0.5542   -0.3976 O   0  0  0  0  0  0  0  0  0  0  0  0
   -1.4703   -1.4749   -0.6312 O   0  0  0  0  0  0  0  0  0  0  0  0
    2.3257    0.5804    0.0407 C   0  0  0  0  0  0  0  0  0  0  0  0
    1.0792   -0.2654   -0.2370 C   0  0  0  0  0  0  0  0  0  0  0  0
    3.5973   -0.2678   -0.0247 C   0  0  0  0  0  0  0  0  0  0  0  0
   -0.2108    0.5501   -0.1507 C   0  0  0  0  0  0  0  0  0  0  0  0
    4.8398    0.5686    0.2801 C   0  0  0  0  0  0  0  0  0  0  0  0
   -1.4538   -0.2711   -0.4136 C   0  0  0  0  0  0  0  0  0  0  0  0
    6.1087   -0.2634    0.1839 C   0  0  0  0  0  0  0  0  0  0  0  0
   -3.7728   -0.0562    0.0051 C   0  0  0  0  0  0  0  0  0  0  0  0
   -3.6124   -0.6304    1.4044 C   0  0  0  0  0  0  0  0  0  0  0  0
   -4.8884    0.9758   -0.0595 C   0  0  0  0  0  0  0  0  0  0  0  0
    2.3865    1.3955   -0.6904 H   0  0  0  0  0  0  0  0  0  0  0  0
    2.2410    1.0403    1.0328 H   0  0  0  0  0  0  0  0  0  0  0  0
    1.1579   -0.7195   -1.2328 H   0  0  0  0  0  0  0  0  0  0  0  0
    1.0323   -1.0947    0.4802 H   0  0  0  0  0  0  0  0  0  0  0  0
    3.5272   -1.0941    0.6933 H   0  0  0  0  0  0  0  0  0  0  0  0
    3.6887   -0.7137   -1.0225 H   0  0  0  0  0  0  0  0  0  0  0  0
   -0.3024    0.9874    0.8500 H   0  0  0  0  0  0  0  0  0  0  0  0
   -0.1765    1.3599   -0.8886 H   0  0  0  0  0  0  0  0  0  0  0  0
    4.7637    0.9953    1.2870 H   0  0  0  0  0  0  0  0  0  0  0  0
    4.9066    1.4066   -0.4234 H   0  0  0  0  0  0  0  0  0  0  0  0
    6.0883   -1.0938    0.8969 H   0  0  0  0  0  0  0  0  0  0  0  0
    6.9846    0.3541    0.4066 H   0  0  0  0  0  0  0  0  0  0  0  0
    6.2316   -0.6769   -0.8222 H   0  0  0  0  0  0  0  0  0  0  0  0
   -4.0151   -0.8602   -0.7011 H   0  0  0  0  0  0  0  0  0  0  0  0
   -4.5693   -1.0028    1.7848 H   0  0  0  0  0  0  0  0  0  0  0  0
   -2.9053   -1.4645    1.4364 H   0  0  0  0  0  0  0  0  0  0  0  0
   -3.2373    0.1303    2.0984 H   0  0  0  0  0  0  0  0  0  0  0  0
   -5.8522    0.5408    0.2214 H   0  0  0  0  0  0  0  0  0  0  0  0
   -4.9707    1.3849   -1.0722 H   0  0  0  0  0  0  0  0  0  0  0  0
   -4.6770    1.8212    0.6044 H   0  0  0  0  0  0  0  0  0  0  0  0
  1  8  1  0  0  0  0
  1 10  1  0  0  0  0
  2  8  2  0  0  0  0
  3  4  1  0  0  0  0
  3  5  1  0  0  0  0
  3 13  1  0  0  0  0
  3 14  1  0  0  0  0
  4  6  1  0  0  0  0
  4 15  1  0  0  0  0
  4 16  1  0  0  0  0
  5  7  1  0  0  0  0
  5 17  1  0  0  0  0
  5 18  1  0  0  0  0
  6  8  1  0  0  0  0
  6 19  1  0  0  0  0
  6 20  1  0  0  0  0
  7  9  1  0  0  0  0
  7 21  1  0  0  0  0
  7 22  1  0  0  0  0
  9 23  1  0  0  0  0
  9 24  1  0  0  0  0
  9 25  1  0  0  0  0
 10 11  1  0  0  0  0
 10 12  1  0  0  0  0
 10 26  1  0  0  0  0
 11 27  1  0  0  0  0
 11 28  1  0  0  0  0
 11 29  1  0  0  0  0
 12 30  1  0  0  0  0
 12 31  1  0  0  0  0
 12 32  1  0  0  0  0
M  END
> <PUBCHEM_COMPOUND_CID>
520710

> <PUBCHEM_CONFORMER_RMSD>
0.8

> <PUBCHEM_CONFORMER_DIVERSEORDER>
1
143
89
140
34
35
131
84
139
83
95
7
19
55
81
61
124
49
33
6
132
11
106
75
94
88
4
10
51
126
8
137
86
98
63
149
62
72
87
145
115
44
14
28
134
21
116
5
65
128
82
144
25
114
122
71
146
16
133
9
102
60
118
138
85
26
12
120
69
119
2
24
13
125
37
97
93
22
31
135
76
70
96
92
79
45
64
112
113
74
17
77
147
80
15
3
103
130
66
52
150
20
53
68
40
32
141
46
127
109
54
105
100
121
30
73
104
78
23
108
47
142
50
27
148
117
90
111
123
91
38
29
56
57
136
99
36
39
59
67
110
58
129
41
48
101
18
43
42
107

> <PUBCHEM_MMFF94_PARTIAL_CHARGES>
5
1 -0.43
10 0.28
2 -0.57
6 0.06
8 0.66

> <PUBCHEM_EFFECTIVE_ROTOR_COUNT>
7

> <PUBCHEM_PHARMACOPHORE_FEATURES>
4
1 2 acceptor
1 9 hydrophobe
3 10 11 12 hydrophobe
5 3 4 5 6 7 hydrophobe

> <PUBCHEM_HEAVY_ATOM_COUNT>
12

> <PUBCHEM_ATOM_DEF_STEREO_COUNT>
0

> <PUBCHEM_ATOM_UDEF_STEREO_COUNT>
0

> <PUBCHEM_BOND_DEF_STEREO_COUNT>
0

> <PUBCHEM_BOND_UDEF_STEREO_COUNT>
0

> <PUBCHEM_ISOTOPIC_ATOM_COUNT>
0

> <PUBCHEM_COMPONENT_COUNT>
1

> <PUBCHEM_CACTVS_TAUTO_COUNT>
1

> <PUBCHEM_CONFORMER_ID>
0007F20600000001

> <PUBCHEM_MMFF94_ENERGY>
7.2139

> <PUBCHEM_FEATURE_SELFOVERLAP>
20.297

> <PUBCHEM_SHAPE_FINGERPRINT>
10014705 185 17988917911697875397
11062470 55 16271928220400673596
11287383 113 17167867499978196140
11401426 45 14405183971758926168
114248 4 9367345938097990596
124424 183 17132114666801688866
13214271 11 18187082862713289903
14123238 8 13767925719961085352
1420 363 11746938668264810960
14251718 22 10879989164427323552
14350574 20 9007048072303720485
17834072 33 16701730652882775716
17834076 25 16774078471030450852
18342897 14 18410573980978056536
187816 3 16128654150383391267
200 152 11674875602111305478
20279233 1 16343710958322979548
20300324 65 13901911098625225347
20645477 56 18343862225559620716
20645477 70 14261085238046102172
20767249 213 15410891873065306528
20828058 44 17458347454685768091
22485316 2 16443340974921644744
23218964 4 18343581820277614956
23402539 116 17918267653999662605
366044 4 18202844348933617727
42 15 18040435490657824972
42788 4 18412824685743795404

> <PUBCHEM_SHAPE_MULTIPOLES>
235.22
12.82
0.99
0.84
11
0.08
-0.16
-0.96
-2.2
-0.6
0.02
-0.55
0.17
0.31

> <PUBCHEM_SHAPE_SELFOVERLAP>
429.121

> <PUBCHEM_SHAPE_VOLUME>
151.1

> <PUBCHEM_COORDINATE_TYPE>
2
5
10

$$$$
