86770
  -OEChem-09042012373D

 25 24  0     1  0  0  0  0  0999 V2000
   -0.2573    0.0402   -1.5941 O   0  0  0  0  0  0  0  0  0  0  0  0
    1.0235    0.5661    0.3826 C   0  0  1  0  0  0  0  0  0  0  0  0
   -1.4497   -0.2353    0.4879 C   0  0  0  0  0  0  0  0  0  0  0  0
   -0.2333    0.1196   -0.3652 C   0  0  0  0  0  0  0  0  0  0  0  0
    2.2153   -0.3599    0.1014 C   0  0  0  0  0  0  0  0  0  0  0  0
    1.3425    1.9998   -0.0337 C   0  0  0  0  0  0  0  0  0  0  0  0
   -2.2904    1.0141    0.7220 C   0  0  0  0  0  0  0  0  0  0  0  0
   -2.2781   -1.3350   -0.1708 C   0  0  0  0  0  0  0  0  0  0  0  0
    1.9276   -1.8097    0.4698 C   0  0  0  0  0  0  0  0  0  0  0  0
    0.8158    0.5600    1.4591 H   0  0  0  0  0  0  0  0  0  0  0  0
   -1.0933   -0.6237    1.4492 H   0  0  0  0  0  0  0  0  0  0  0  0
    3.0871   -0.0142    0.6697 H   0  0  0  0  0  0  0  0  0  0  0  0
    2.4874   -0.3173   -0.9604 H   0  0  0  0  0  0  0  0  0  0  0  0
    1.5762    2.0661   -1.1022 H   0  0  0  0  0  0  0  0  0  0  0  0
    2.2017    2.3845    0.5255 H   0  0  0  0  0  0  0  0  0  0  0  0
    0.4913    2.6620    0.1578 H   0  0  0  0  0  0  0  0  0  0  0  0
   -3.1668    0.7866    1.3376 H   0  0  0  0  0  0  0  0  0  0  0  0
   -1.7082    1.7854    1.2373 H   0  0  0  0  0  0  0  0  0  0  0  0
   -2.6381    1.4428   -0.2245 H   0  0  0  0  0  0  0  0  0  0  0  0
   -2.6977   -1.0043   -1.1273 H   0  0  0  0  0  0  0  0  0  0  0  0
   -1.6624   -2.2192   -0.3680 H   0  0  0  0  0  0  0  0  0  0  0  0
   -3.1081   -1.6369    0.4764 H   0  0  0  0  0  0  0  0  0  0  0  0
    1.1360   -2.2356   -0.1540 H   0  0  0  0  0  0  0  0  0  0  0  0
    2.8263   -2.4180    0.3255 H   0  0  0  0  0  0  0  0  0  0  0  0
    1.6262   -1.8952    1.5186 H   0  0  0  0  0  0  0  0  0  0  0  0
  1  4  2  0  0  0  0
  2  4  1  0  0  0  0
  2  5  1  0  0  0  0
  2  6  1  0  0  0  0
  2 10  1  0  0  0  0
  3  4  1  0  0  0  0
  3  7  1  0  0  0  0
  3  8  1  0  0  0  0
  3 11  1  0  0  0  0
  5  9  1  0  0  0  0
  5 12  1  0  0  0  0
  5 13  1  0  0  0  0
  6 14  1  0  0  0  0
  6 15  1  0  0  0  0
  6 16  1  0  0  0  0
  7 17  1  0  0  0  0
  7 18  1  0  0  0  0
  7 19  1  0  0  0  0
  8 20  1  0  0  0  0
  8 21  1  0  0  0  0
  8 22  1  0  0  0  0
  9 23  1  0  0  0  0
  9 24  1  0  0  0  0
  9 25  1  0  0  0  0
M  END
> <PUBCHEM_COMPOUND_CID>
86770

> <PUBCHEM_CONFORMER_RMSD>
0.6

> <PUBCHEM_CONFORMER_DIVERSEORDER>
2
15
19
12
25
23
30
6
18
26
9
27
29
21
7
22
17
5
28
20
14
10
11
13
16
8
4
3
24
1

> <PUBCHEM_MMFF94_PARTIAL_CHARGES>
4
1 -0.57
2 0.06
3 0.06
4 0.45

> <PUBCHEM_EFFECTIVE_ROTOR_COUNT>
3

> <PUBCHEM_PHARMACOPHORE_FEATURES>
4
1 1 acceptor
1 6 hydrophobe
1 9 hydrophobe
3 3 7 8 hydrophobe

> <PUBCHEM_HEAVY_ATOM_COUNT>
9

> <PUBCHEM_ATOM_DEF_STEREO_COUNT>
0

> <PUBCHEM_ATOM_UDEF_STEREO_COUNT>
1

> <PUBCHEM_BOND_DEF_STEREO_COUNT>
0

> <PUBCHEM_BOND_UDEF_STEREO_COUNT>
0

> <PUBCHEM_ISOTOPIC_ATOM_COUNT>
0

> <PUBCHEM_COMPONENT_COUNT>
1

> <PUBCHEM_CACTVS_TAUTO_COUNT>
3

> <PUBCHEM_CONFORMER_ID>
000152F200000002

> <PUBCHEM_MMFF94_ENERGY>
8.1539

> <PUBCHEM_FEATURE_SELFOVERLAP>
20.297

> <PUBCHEM_SHAPE_FINGERPRINT>
20653091 64 18412546543577167728
20711978 78 18336530711942610414
21040471 1 16200442380893719749
21061003 4 18263067860898844768
21922407 69 18268148845379454051
23552423 10 18337956799998607259
24536 1 18267002003064506457
29004967 10 18335135363199503592
5084963 1 17560813168129340483

> <PUBCHEM_SHAPE_MULTIPOLES>
179.35
3.37
1.82
0.96
0.69
0.1
0.27
-0.72
-0.61
-0.65
-0.19
0.16
0.02
-0.42

> <PUBCHEM_SHAPE_SELFOVERLAP>
327.683

> <PUBCHEM_SHAPE_VOLUME>
116.3

> <PUBCHEM_COORDINATE_TYPE>
2
5
10

$$$$
