3477029
  -OEChem-09042010493D

 24 25  0     1  0  0  0  0  0999 V2000
    2.5176   -1.3372    1.3683 O   0  0  0  0  0  0  0  0  0  0  0  0
    1.5744    2.2977   -0.1166 O   0  0  0  0  0  0  0  0  0  0  0  0
   -0.9222    2.6309    0.2715 O   0  0  0  0  0  0  0  0  0  0  0  0
   -3.7037   -1.1996    0.0874 O   0  0  0  0  0  0  0  0  0  0  0  0
    2.4303   -1.2485   -0.0536 C   0  0  1  0  0  0  0  0  0  0  0  0
    1.1093   -1.8316   -0.5434 C   0  0  0  0  0  0  0  0  0  0  0  0
    2.6321    0.1894   -0.5063 C   0  0  0  0  0  0  0  0  0  0  0  0
   -0.0601   -0.9222   -0.2727 C   0  0  0  0  0  0  0  0  0  0  0  0
    0.0966    0.4629   -0.1244 C   0  0  0  0  0  0  0  0  0  0  0  0
    1.4427    1.0807   -0.2192 C   0  0  0  0  0  0  0  0  0  0  0  0
   -1.3507   -1.4686   -0.2087 C   0  0  0  0  0  0  0  0  0  0  0  0
   -1.0166    1.2803    0.1097 C   0  0  0  0  0  0  0  0  0  0  0  0
   -2.4588   -0.6533    0.0231 C   0  0  0  0  0  0  0  0  0  0  0  0
   -2.2909    0.7192    0.1848 C   0  0  0  0  0  0  0  0  0  0  0  0
    3.2477   -1.8657   -0.4449 H   0  0  0  0  0  0  0  0  0  0  0  0
    0.9395   -2.7963   -0.0496 H   0  0  0  0  0  0  0  0  0  0  0  0
    1.1596   -2.0034   -1.6255 H   0  0  0  0  0  0  0  0  0  0  0  0
    2.8115    0.2261   -1.5868 H   0  0  0  0  0  0  0  0  0  0  0  0
    3.4984    0.6212    0.0081 H   0  0  0  0  0  0  0  0  0  0  0  0
   -1.4861   -2.5402   -0.3397 H   0  0  0  0  0  0  0  0  0  0  0  0
   -3.1621    1.3446    0.3652 H   0  0  0  0  0  0  0  0  0  0  0  0
    3.3884   -0.9940    1.6317 H   0  0  0  0  0  0  0  0  0  0  0  0
   -1.8072    3.0047    0.4221 H   0  0  0  0  0  0  0  0  0  0  0  0
   -3.6342   -2.1605   -0.0469 H   0  0  0  0  0  0  0  0  0  0  0  0
  1  5  1  0  0  0  0
  1 22  1  0  0  0  0
  2 10  2  0  0  0  0
  3 12  1  0  0  0  0
  3 23  1  0  0  0  0
  4 13  1  0  0  0  0
  4 24  1  0  0  0  0
  5  6  1  0  0  0  0
  5  7  1  0  0  0  0
  5 15  1  0  0  0  0
  6  8  1  0  0  0  0
  6 16  1  0  0  0  0
  6 17  1  0  0  0  0
  7 10  1  0  0  0  0
  7 18  1  0  0  0  0
  7 19  1  0  0  0  0
  8  9  2  0  0  0  0
  8 11  1  0  0  0  0
  9 10  1  0  0  0  0
  9 12  1  0  0  0  0
 11 13  2  0  0  0  0
 11 20  1  0  0  0  0
 12 14  2  0  0  0  0
 13 14  1  0  0  0  0
 14 21  1  0  0  0  0
M  END
> <PUBCHEM_COMPOUND_CID>
3477029

> <PUBCHEM_CONFORMER_RMSD>
0.4

> <PUBCHEM_CONFORMER_DIVERSEORDER>
1
2
3

> <PUBCHEM_MMFF94_PARTIAL_CHARGES>
19
1 -0.68
10 0.42
11 -0.15
12 0.08
13 0.08
14 -0.15
2 -0.57
20 0.15
21 0.15
22 0.4
23 0.45
24 0.45
3 -0.53
4 -0.53
5 0.28
6 0.14
7 0.06
8 -0.14
9 0.09

> <PUBCHEM_EFFECTIVE_ROTOR_COUNT>
0.6

> <PUBCHEM_PHARMACOPHORE_FEATURES>
7
1 1 acceptor
1 1 donor
1 2 acceptor
1 3 donor
1 4 donor
6 5 6 7 8 9 10 rings
6 8 9 11 12 13 14 rings

> <PUBCHEM_HEAVY_ATOM_COUNT>
14

> <PUBCHEM_ATOM_DEF_STEREO_COUNT>
0

> <PUBCHEM_ATOM_UDEF_STEREO_COUNT>
1

> <PUBCHEM_BOND_DEF_STEREO_COUNT>
0

> <PUBCHEM_BOND_UDEF_STEREO_COUNT>
0

> <PUBCHEM_ISOTOPIC_ATOM_COUNT>
0

> <PUBCHEM_COMPONENT_COUNT>
1

> <PUBCHEM_CACTVS_TAUTO_COUNT>
42

> <PUBCHEM_CONFORMER_ID>
00350E2500000001

> <PUBCHEM_MMFF94_ENERGY>
31.5306

> <PUBCHEM_FEATURE_SELFOVERLAP>
35.543

> <PUBCHEM_SHAPE_FINGERPRINT>
10967382 1 18267870673137628903
10980938 120 18268152139793560167
11680611 10 18043810879564823450
12202030 40 15792314621124789248
12382932 28 18124307203981670570
12423570 1 10822679259876064038
12524768 44 18341341075287899543
12696612 119 18410860927774601438
16945 1 18340771429411749031
17990270 104 18411989022415201998
193761 8 18339930311648944757
19973954 147 18268435645978552559
20559304 39 18410012134973700518
20645477 70 18339360881154441375
20653091 64 18187366506585116458
20871998 184 18129376016709767950
21501502 16 18409454652402786325
21501925 9 18410845581930474803
2334 1 18052258693472733791
23388829 49 18342164613644189574
23463225 33 18410577309693521623
23552423 10 18262523713711079301
23559900 14 17335629605624287774
2748010 2 18052263082966071246
2897 32 18409735096592562388
5084963 1 17989213607332473538
528862 383 18264202689430843638
528886 8 18197498630393523878
53812654 25 18201708591844715543
66348 1 18267871755469439428
7364860 26 18271528705785244108

> <PUBCHEM_SHAPE_MULTIPOLES>
264.64
4.25
2.37
0.76
1.28
1.04
-0.13
-1.39
-0.35
-0.11
-0.03
-0.35
-0.18
-0.32

> <PUBCHEM_SHAPE_SELFOVERLAP>
574.947

> <PUBCHEM_SHAPE_VOLUME>
143.1

> <PUBCHEM_COORDINATE_TYPE>
2
5
10

$$$$
