102132637
  -OEChem-09042010363D

 60 64  0     1  0  0  0  0  0999 V2000
   -0.6732    1.3546    0.4241 O   0  0  0  0  0  0  0  0  0  0  0  0
    4.1142    1.1642    0.9182 O   0  0  0  0  0  0  0  0  0  0  0  0
   -1.6142    2.0218   -2.2138 O   0  0  0  0  0  0  0  0  0  0  0  0
    2.1672    4.8149   -1.4196 O   0  0  0  0  0  0  0  0  0  0  0  0
    5.0862   -0.5954    2.0092 O   0  0  0  0  0  0  0  0  0  0  0  0
   -1.2411   -3.8223    0.1592 O   0  0  0  0  0  0  0  0  0  0  0  0
    2.9497   -3.1055   -2.0452 O   0  0  0  0  0  0  0  0  0  0  0  0
    0.6277   -4.5832   -1.7380 O   0  0  0  0  0  0  0  0  0  0  0  0
   -4.1901   -2.0419   -0.4828 O   0  0  0  0  0  0  0  0  0  0  0  0
   -6.5251   -0.9421    0.5485 O   0  0  0  0  0  0  0  0  0  0  0  0
    1.5520   -0.0190    1.5047 C   0  0  2  0  0  0  0  0  0  0  0  0
    1.6717    1.2684    0.7236 C   0  0  0  0  0  0  0  0  0  0  0  0
   -1.7214    2.9464   -1.1309 C   0  0  1  0  0  0  0  0  0  0  0  0
   -1.8149    2.1930    0.2002 C   0  0  1  0  0  0  0  0  0  0  0  0
    0.5491    1.9392    0.2057 C   0  0  0  0  0  0  0  0  0  0  0  0
   -0.4870    3.8440   -1.1141 C   0  0  0  0  0  0  0  0  0  0  0  0
    0.7015    3.1231   -0.5345 C   0  0  0  0  0  0  0  0  0  0  0  0
    2.7559   -0.1850    2.4353 C   0  0  0  0  0  0  0  0  0  0  0  0
    2.9363    1.8139    0.4920 C   0  0  0  0  0  0  0  0  0  0  0  0
    1.3045   -1.2425    0.6348 C   0  0  0  0  0  0  0  0  0  0  0  0
    1.9849    3.6543   -0.7260 C   0  0  0  0  0  0  0  0  0  0  0  0
   -3.0739    1.3517    0.2913 C   0  0  0  0  0  0  0  0  0  0  0  0
    3.1045    2.9987   -0.2209 C   0  0  0  0  0  0  0  0  0  0  0  0
    4.0811    0.0639    1.7648 C   0  0  0  0  0  0  0  0  0  0  0  0
    2.2478   -1.6226   -0.3198 C   0  0  0  0  0  0  0  0  0  0  0  0
    0.1337   -1.9842    0.7924 C   0  0  0  0  0  0  0  0  0  0  0  0
   -3.0599    0.0261   -0.1427 C   0  0  0  0  0  0  0  0  0  0  0  0
   -4.2454    1.9035    0.8098 C   0  0  0  0  0  0  0  0  0  0  0  0
   -0.0937   -3.1062   -0.0046 C   0  0  0  0  0  0  0  0  0  0  0  0
    2.0204   -2.7445   -1.1169 C   0  0  0  0  0  0  0  0  0  0  0  0
    0.8498   -3.4863   -0.9592 C   0  0  0  0  0  0  0  0  0  0  0  0
   -4.2172   -0.7478   -0.0579 C   0  0  0  0  0  0  0  0  0  0  0  0
   -5.4029    1.1296    0.8942 C   0  0  0  0  0  0  0  0  0  0  0  0
   -5.3888   -0.1961    0.4604 C   0  0  0  0  0  0  0  0  0  0  0  0
   -1.2075   -4.8933    1.1004 C   0  0  0  0  0  0  0  0  0  0  0  0
    4.1182   -2.2932   -2.1420 C   0  0  0  0  0  0  0  0  0  0  0  0
    0.6897    0.0916    2.1783 H   0  0  0  0  0  0  0  0  0  0  0  0
   -2.6195    3.5500   -1.3065 H   0  0  0  0  0  0  0  0  0  0  0  0
   -1.8418    2.9142    1.0303 H   0  0  0  0  0  0  0  0  0  0  0  0
   -0.6839    4.7271   -0.4943 H   0  0  0  0  0  0  0  0  0  0  0  0
   -0.2613    4.1759   -2.1344 H   0  0  0  0  0  0  0  0  0  0  0  0
    2.7676   -1.1910    2.8720 H   0  0  0  0  0  0  0  0  0  0  0  0
    2.6928    0.5295    3.2666 H   0  0  0  0  0  0  0  0  0  0  0  0
    4.1027    3.3955   -0.3854 H   0  0  0  0  0  0  0  0  0  0  0  0
   -1.5771    2.5375   -3.0373 H   0  0  0  0  0  0  0  0  0  0  0  0
    3.1350   -1.0138   -0.4243 H   0  0  0  0  0  0  0  0  0  0  0  0
   -0.6072   -1.6954    1.5339 H   0  0  0  0  0  0  0  0  0  0  0  0
   -2.1572   -0.4082   -0.5636 H   0  0  0  0  0  0  0  0  0  0  0  0
   -4.2695    2.9355    1.1492 H   0  0  0  0  0  0  0  0  0  0  0  0
    3.1166    5.0236   -1.4503 H   0  0  0  0  0  0  0  0  0  0  0  0
   -6.3088    1.5721    1.2998 H   0  0  0  0  0  0  0  0  0  0  0  0
   -0.2486   -4.9453   -1.5216 H   0  0  0  0  0  0  0  0  0  0  0  0
   -3.2952   -2.2537   -0.7996 H   0  0  0  0  0  0  0  0  0  0  0  0
   -7.2335   -0.3962    0.9309 H   0  0  0  0  0  0  0  0  0  0  0  0
   -0.4381   -5.6240    0.8316 H   0  0  0  0  0  0  0  0  0  0  0  0
   -1.0237   -4.5089    2.1087 H   0  0  0  0  0  0  0  0  0  0  0  0
   -2.1814   -5.3903    1.0881 H   0  0  0  0  0  0  0  0  0  0  0  0
    4.7047   -2.3155   -1.2170 H   0  0  0  0  0  0  0  0  0  0  0  0
    3.8765   -1.2733   -2.4605 H   0  0  0  0  0  0  0  0  0  0  0  0
    4.7476   -2.7280   -2.9257 H   0  0  0  0  0  0  0  0  0  0  0  0
  1 14  1  0  0  0  0
  1 15  1  0  0  0  0
  2 19  1  0  0  0  0
  2 24  1  0  0  0  0
  3 13  1  0  0  0  0
  3 45  1  0  0  0  0
  4 21  1  0  0  0  0
  4 50  1  0  0  0  0
  5 24  2  0  0  0  0
  6 29  1  0  0  0  0
  6 35  1  0  0  0  0
  7 30  1  0  0  0  0
  7 36  1  0  0  0  0
  8 31  1  0  0  0  0
  8 52  1  0  0  0  0
  9 32  1  0  0  0  0
  9 53  1  0  0  0  0
 10 34  1  0  0  0  0
 10 54  1  0  0  0  0
 11 12  1  0  0  0  0
 11 18  1  0  0  0  0
 11 20  1  0  0  0  0
 11 37  1  0  0  0  0
 12 15  1  0  0  0  0
 12 19  2  0  0  0  0
 13 14  1  0  0  0  0
 13 16  1  0  0  0  0
 13 38  1  0  0  0  0
 14 22  1  0  0  0  0
 14 39  1  0  0  0  0
 15 17  2  0  0  0  0
 16 17  1  0  0  0  0
 16 40  1  0  0  0  0
 16 41  1  0  0  0  0
 17 21  1  0  0  0  0
 18 24  1  0  0  0  0
 18 42  1  0  0  0  0
 18 43  1  0  0  0  0
 19 23  1  0  0  0  0
 20 25  2  0  0  0  0
 20 26  1  0  0  0  0
 21 23  2  0  0  0  0
 22 27  2  0  0  0  0
 22 28  1  0  0  0  0
 23 44  1  0  0  0  0
 25 30  1  0  0  0  0
 25 46  1  0  0  0  0
 26 29  2  0  0  0  0
 26 47  1  0  0  0  0
 27 32  1  0  0  0  0
 27 48  1  0  0  0  0
 28 33  2  0  0  0  0
 28 49  1  0  0  0  0
 29 31  1  0  0  0  0
 30 31  2  0  0  0  0
 32 34  2  0  0  0  0
 33 34  1  0  0  0  0
 33 51  1  0  0  0  0
 35 55  1  0  0  0  0
 35 56  1  0  0  0  0
 35 57  1  0  0  0  0
 36 58  1  0  0  0  0
 36 59  1  0  0  0  0
 36 60  1  0  0  0  0
M  END
> <PUBCHEM_COMPOUND_CID>
102132637

> <PUBCHEM_CONFORMER_RMSD>
0.8

> <PUBCHEM_CONFORMER_DIVERSEORDER>
1
28
15
27
3
7
16
29
21
24
22
14
19
26
17
25
8
4
9
23
6
20
18
5
13
2
10
12
11

> <PUBCHEM_MMFF94_PARTIAL_CHARGES>
47
1 -0.36
10 -0.53
11 0.29
12 -0.14
13 0.28
14 0.42
15 0.08
16 0.14
17 -0.14
18 0.06
19 0.08
2 -0.23
20 -0.14
21 0.08
22 -0.14
23 -0.15
24 0.66
25 -0.15
26 -0.15
27 -0.15
28 -0.15
29 0.08
3 -0.68
30 0.08
31 0.08
32 0.08
33 -0.15
34 0.08
35 0.28
36 0.28
4 -0.53
44 0.15
45 0.4
46 0.15
47 0.15
48 0.15
49 0.15
5 -0.57
50 0.45
51 0.15
52 0.45
53 0.45
54 0.45
6 -0.36
7 -0.36
8 -0.53
9 -0.53

> <PUBCHEM_EFFECTIVE_ROTOR_COUNT>
5.4

> <PUBCHEM_PHARMACOPHORE_FEATURES>
15
1 1 acceptor
1 10 donor
1 3 acceptor
1 3 donor
1 4 donor
1 5 acceptor
1 6 acceptor
1 7 acceptor
1 8 donor
1 9 donor
6 1 13 14 15 16 17 rings
6 12 15 17 19 21 23 rings
6 2 11 12 18 19 24 rings
6 20 25 26 29 30 31 rings
6 22 27 28 32 33 34 rings

> <PUBCHEM_HEAVY_ATOM_COUNT>
36

> <PUBCHEM_ATOM_DEF_STEREO_COUNT>
3

> <PUBCHEM_ATOM_UDEF_STEREO_COUNT>
0

> <PUBCHEM_BOND_DEF_STEREO_COUNT>
0

> <PUBCHEM_BOND_UDEF_STEREO_COUNT>
0

> <PUBCHEM_ISOTOPIC_ATOM_COUNT>
0

> <PUBCHEM_COMPONENT_COUNT>
1

> <PUBCHEM_CACTVS_TAUTO_COUNT>
136

> <PUBCHEM_CONFORMER_ID>
06166B9D00000001

> <PUBCHEM_MMFF94_ENERGY>
128.9529

> <PUBCHEM_FEATURE_SELFOVERLAP>
76.188

> <PUBCHEM_SHAPE_FINGERPRINT>
10483366 6 18267611103269679652
11513181 2 18057894725916416743
12156800 1 17540286523079074007
12422481 6 18057300843893164546
12553582 1 18191026703669369585
12788726 201 16461928549713235984
13140716 1 18049711108088606888
14117953 113 18336814326261440557
15297060 5 17913785078142189377
15975801 100 17531250548092251676
16728300 4 17244951910311500250
18681886 176 18338793532891116000
19311894 1 16107272313131010334
1979834 28 18342174466673986177
20028762 73 18343014527880311343
20764821 26 18119797019837255751
21197605 99 17974579297263040835
21792965 302 17623025494940662862
22182313 1 18123458389368550228
23559900 14 18268996397510475197
238918 7 18127949972141683098
25222932 49 17532091777556191731
255183 313 18054754431003227018
3380486 77 17324863453150314779
42626532 9 18117587091961414123
563151 248 17418082248281907254
6287921 2 18343022185880762027
6823239 73 18196653990741453112

> <PUBCHEM_SHAPE_MULTIPOLES>
682.17
9.3
6.65
1.81
10.99
2.23
-0.1
0.73
2.55
-2.44
-3.18
-2.14
0.49
1.36

> <PUBCHEM_SHAPE_SELFOVERLAP>
1514.943

> <PUBCHEM_SHAPE_VOLUME>
362.3

> <PUBCHEM_COORDINATE_TYPE>
2
5
10

$$$$
