6439187
  -OEChem-09042007053D

 35 36  0     0  0  0  0  0  0999 V2000
   -4.5282    1.3781   -0.9387 O   0  0  0  0  0  0  0  0  0  0  0  0
   -2.1145    0.4866   -1.9227 O   0  0  0  0  0  0  0  0  0  0  0  0
   -5.4500    0.4531    1.5023 O   0  0  0  0  0  0  0  0  0  0  0  0
   -0.4964   -2.3939   -1.1648 O   0  0  0  0  0  0  0  0  0  0  0  0
    6.7708    1.4744    0.6934 O   0  0  0  0  0  0  0  0  0  0  0  0
   -1.8361   -0.8778    0.0228 C   0  0  0  0  0  0  0  0  0  0  0  0
   -2.5672    0.0295   -0.7197 C   0  0  0  0  0  0  0  0  0  0  0  0
   -3.7898    0.4824   -0.2235 C   0  0  0  0  0  0  0  0  0  0  0  0
   -2.2814   -1.3496    1.2434 C   0  0  0  0  0  0  0  0  0  0  0  0
   -4.2580    0.0191    1.0062 C   0  0  0  0  0  0  0  0  0  0  0  0
   -0.5346   -1.3739   -0.4857 C   0  0  0  0  0  0  0  0  0  0  0  0
   -3.5037   -0.8968    1.7397 C   0  0  0  0  0  0  0  0  0  0  0  0
    3.1690   -0.3815   -0.2067 C   0  0  0  0  0  0  0  0  0  0  0  0
    0.6893   -0.6111   -0.1133 C   0  0  0  0  0  0  0  0  0  0  0  0
    1.9073   -1.0327   -0.5219 C   0  0  0  0  0  0  0  0  0  0  0  0
    3.1840    0.9534    0.1970 C   0  0  0  0  0  0  0  0  0  0  0  0
    4.3645   -1.0931   -0.3081 C   0  0  0  0  0  0  0  0  0  0  0  0
    4.3946    1.5770    0.4993 C   0  0  0  0  0  0  0  0  0  0  0  0
    5.5751   -0.4696   -0.0058 C   0  0  0  0  0  0  0  0  0  0  0  0
    5.5901    0.8655    0.3980 C   0  0  0  0  0  0  0  0  0  0  0  0
   -4.2850    2.7609   -0.6911 C   0  0  0  0  0  0  0  0  0  0  0  0
   -1.7001   -2.0635    1.8199 H   0  0  0  0  0  0  0  0  0  0  0  0
   -3.8629   -1.2616    2.6981 H   0  0  0  0  0  0  0  0  0  0  0  0
    0.5431    0.2647    0.5084 H   0  0  0  0  0  0  0  0  0  0  0  0
    1.9862   -1.9357   -1.1235 H   0  0  0  0  0  0  0  0  0  0  0  0
    2.2810    1.5522    0.2712 H   0  0  0  0  0  0  0  0  0  0  0  0
    4.3727   -2.1349   -0.6197 H   0  0  0  0  0  0  0  0  0  0  0  0
    4.3937    2.6188    0.8086 H   0  0  0  0  0  0  0  0  0  0  0  0
    6.5032   -1.0289   -0.0862 H   0  0  0  0  0  0  0  0  0  0  0  0
   -2.7887    1.0726   -2.3070 H   0  0  0  0  0  0  0  0  0  0  0  0
   -5.8597    1.0459    0.8491 H   0  0  0  0  0  0  0  0  0  0  0  0
   -3.2474    3.0200   -0.9246 H   0  0  0  0  0  0  0  0  0  0  0  0
   -4.5066    3.0123    0.3509 H   0  0  0  0  0  0  0  0  0  0  0  0
   -4.9444    3.3454   -1.3384 H   0  0  0  0  0  0  0  0  0  0  0  0
    6.5943    2.3947    0.9543 H   0  0  0  0  0  0  0  0  0  0  0  0
  1  8  1  0  0  0  0
  1 21  1  0  0  0  0
  2  7  1  0  0  0  0
  2 30  1  0  0  0  0
  3 10  1  0  0  0  0
  3 31  1  0  0  0  0
  4 11  2  0  0  0  0
  5 20  1  0  0  0  0
  5 35  1  0  0  0  0
  6  7  2  0  0  0  0
  6  9  1  0  0  0  0
  6 11  1  0  0  0  0
  7  8  1  0  0  0  0
  8 10  2  0  0  0  0
  9 12  2  0  0  0  0
  9 22  1  0  0  0  0
 10 12  1  0  0  0  0
 11 14  1  0  0  0  0
 12 23  1  0  0  0  0
 13 15  1  0  0  0  0
 13 16  2  0  0  0  0
 13 17  1  0  0  0  0
 14 15  2  0  0  0  0
 14 24  1  0  0  0  0
 15 25  1  0  0  0  0
 16 18  1  0  0  0  0
 16 26  1  0  0  0  0
 17 19  2  0  0  0  0
 17 27  1  0  0  0  0
 18 20  2  0  0  0  0
 18 28  1  0  0  0  0
 19 20  1  0  0  0  0
 19 29  1  0  0  0  0
 21 32  1  0  0  0  0
 21 33  1  0  0  0  0
 21 34  1  0  0  0  0
M  END
> <PUBCHEM_COMPOUND_CID>
6439187

> <PUBCHEM_CONFORMER_RMSD>
0.6

> <PUBCHEM_CONFORMER_DIVERSEORDER>
1
36
25
9
13
34
15
10
26
23
14
30
12
17
3
18
8
20
6
16
11
27
28
32
7
21
35
22
29
4
19
5
31
2
24
33

> <PUBCHEM_MMFF94_PARTIAL_CHARGES>
32
1 -0.36
10 0.08
11 0.47
12 -0.15
13 0.03
14 -0.14
15 -0.18
16 -0.15
17 -0.15
18 -0.15
19 -0.15
2 -0.53
20 0.08
21 0.28
22 0.15
23 0.15
24 0.15
25 0.15
26 0.15
27 0.15
28 0.15
29 0.15
3 -0.53
30 0.45
31 0.45
35 0.45
4 -0.57
5 -0.53
6 0.09
7 0.08
8 0.08
9 -0.15

> <PUBCHEM_EFFECTIVE_ROTOR_COUNT>
4

> <PUBCHEM_PHARMACOPHORE_FEATURES>
7
1 1 acceptor
1 2 donor
1 3 donor
1 4 acceptor
1 5 donor
6 13 16 17 18 19 20 rings
6 6 7 8 9 10 12 rings

> <PUBCHEM_HEAVY_ATOM_COUNT>
21

> <PUBCHEM_ATOM_DEF_STEREO_COUNT>
0

> <PUBCHEM_ATOM_UDEF_STEREO_COUNT>
0

> <PUBCHEM_BOND_DEF_STEREO_COUNT>
1

> <PUBCHEM_BOND_UDEF_STEREO_COUNT>
0

> <PUBCHEM_ISOTOPIC_ATOM_COUNT>
0

> <PUBCHEM_COMPONENT_COUNT>
1

> <PUBCHEM_CACTVS_TAUTO_COUNT>
57

> <PUBCHEM_CONFORMER_ID>
0062411300000001

> <PUBCHEM_MMFF94_ENERGY>
74.8887

> <PUBCHEM_FEATURE_SELFOVERLAP>
35.522

> <PUBCHEM_SHAPE_FINGERPRINT>
10 15 18114463452735868088
10014705 185 18201716288668787566
10319926 262 17749116555968053514
11370993 144 18187923928815557038
12236239 1 16989127539006734006
12403259 118 18040438814598619597
12403259 415 18337962198683029134
12507560 40 18260269620516992938
12596602 18 15791735226053178196
12633257 1 16515689935251241037
12892183 10 17749390325963332651
13103583 49 14129351645825266797
13402501 40 18410569557183366997
13675066 3 18187366545398357054
14341114 176 18040438785161511032
14341114 328 16588032311680847694
14528608 73 14764343856251600986
15081414 286 18272941527062160928
15183329 4 16702032963494795940
15188451 53 16516250768092156499
15348495 7 18041000691453717216
16988056 13 12952579324113540898
17780758 139 15719389559604392801
17844677 252 18113908190620938612
1813 80 13334743392566963438
19377110 9 14707213245009944766
193927 3 11386359310498389098
19489759 90 17676205780067832267
19784866 240 11963398466095219739
20281389 69 18412260658154529088
20645477 56 18410571803688048630
20871999 31 12535354480156721467
21033648 144 17703216442856167984
21033648 29 18340194250485241168
21307412 95 11023523789538652697
22224240 67 18410301307196697651
22393880 68 11887678346995307876
23198884 109 15554450703661989844
23379529 103 11669482532586507253
23402539 116 15123506982458062139
23402655 69 17275102847417817878
23559900 14 17605568642909899766
27216 239 18335138709116280975
2838139 119 18341322297622478661
2916195 48 18410008840707118490
300161 21 17418373619380381650
314194 84 12179850511071581226
351380 3 13190337989445041946
465052 167 12973611049170760114
474 4 17560809805175657870
5104073 3 17677329407382984081
542803 24 17132398324049216010
5924683 9 18188775092534195579
59755656 520 17775290473164479183
90127 26 18335707148027460986

> <PUBCHEM_SHAPE_MULTIPOLES>
402.82
14.67
2.01
1.3
13.36
0.72
0.09
7.26
3.86
-0.98
-0.34
-1.58
-0.14
1.79

> <PUBCHEM_SHAPE_SELFOVERLAP>
869.14

> <PUBCHEM_SHAPE_VOLUME>
221.5

> <PUBCHEM_COORDINATE_TYPE>
2
5
10

$$$$
