101688442
  -OEChem-09042010193D

 31 31  0     0  0  0  0  0  0999 V2000
   -2.5331    0.2590    0.1221 O   0  0  0  0  0  0  0  0  0  0  0  0
   -4.2228   -0.4468    2.2366 O   0  0  0  0  0  0  0  0  0  0  0  0
   -4.5421    1.9014   -1.3428 O   0  0  0  0  0  0  0  0  0  0  0  0
   -1.8567   -1.5151   -1.1941 O   0  0  0  0  0  0  0  0  0  0  0  0
    6.1192    0.7556    0.5695 O   0  0  0  0  0  0  0  0  0  0  0  0
   -3.9037   -0.0640   -0.1248 C   0  0  0  0  0  0  0  0  0  0  0  0
   -4.3785   -1.0357    0.9496 C   0  0  0  0  0  0  0  0  0  0  0  0
   -4.7041    1.2313   -0.0972 C   0  0  0  0  0  0  0  0  0  0  0  0
    2.2010   -0.3219   -0.2765 C   0  0  0  0  0  0  0  0  0  0  0  0
   -1.6215   -0.5544   -0.4785 C   0  0  0  0  0  0  0  0  0  0  0  0
    0.8101   -0.7036   -0.5787 C   0  0  0  0  0  0  0  0  0  0  0  0
   -0.2729   -0.0674   -0.1103 C   0  0  0  0  0  0  0  0  0  0  0  0
    2.4877    0.9649    0.1792 C   0  0  0  0  0  0  0  0  0  0  0  0
    3.2310   -1.2469   -0.4474 C   0  0  0  0  0  0  0  0  0  0  0  0
    3.8043    1.3268    0.4637 C   0  0  0  0  0  0  0  0  0  0  0  0
    4.5478   -0.8850   -0.1630 C   0  0  0  0  0  0  0  0  0  0  0  0
    4.8343    0.4019    0.2926 C   0  0  0  0  0  0  0  0  0  0  0  0
   -4.0210   -0.5239   -1.1145 H   0  0  0  0  0  0  0  0  0  0  0  0
   -4.3617    1.9035    0.6964 H   0  0  0  0  0  0  0  0  0  0  0  0
   -5.7732    1.0325    0.0283 H   0  0  0  0  0  0  0  0  0  0  0  0
   -3.7806   -1.9526    0.9332 H   0  0  0  0  0  0  0  0  0  0  0  0
   -5.4319   -1.2970    0.8072 H   0  0  0  0  0  0  0  0  0  0  0  0
    0.6980   -1.5746   -1.2204 H   0  0  0  0  0  0  0  0  0  0  0  0
   -0.2216    0.7887    0.5523 H   0  0  0  0  0  0  0  0  0  0  0  0
    1.7217    1.7238    0.3077 H   0  0  0  0  0  0  0  0  0  0  0  0
    3.0259   -2.2546   -0.8007 H   0  0  0  0  0  0  0  0  0  0  0  0
    4.0226    2.3321    0.8140 H   0  0  0  0  0  0  0  0  0  0  0  0
    5.3413   -1.6147   -0.3003 H   0  0  0  0  0  0  0  0  0  0  0  0
   -5.0653    2.7198   -1.2964 H   0  0  0  0  0  0  0  0  0  0  0  0
   -4.5350   -1.0984    2.8873 H   0  0  0  0  0  0  0  0  0  0  0  0
    6.6999   -0.0050    0.3949 H   0  0  0  0  0  0  0  0  0  0  0  0
  1  6  1  0  0  0  0
  1 10  1  0  0  0  0
  2  7  1  0  0  0  0
  2 30  1  0  0  0  0
  3  8  1  0  0  0  0
  3 29  1  0  0  0  0
  4 10  2  0  0  0  0
  5 17  1  0  0  0  0
  5 31  1  0  0  0  0
  6  7  1  0  0  0  0
  6  8  1  0  0  0  0
  6 18  1  0  0  0  0
  7 21  1  0  0  0  0
  7 22  1  0  0  0  0
  8 19  1  0  0  0  0
  8 20  1  0  0  0  0
  9 11  1  0  0  0  0
  9 13  2  0  0  0  0
  9 14  1  0  0  0  0
 10 12  1  0  0  0  0
 11 12  2  0  0  0  0
 11 23  1  0  0  0  0
 12 24  1  0  0  0  0
 13 15  1  0  0  0  0
 13 25  1  0  0  0  0
 14 16  2  0  0  0  0
 14 26  1  0  0  0  0
 15 17  2  0  0  0  0
 15 27  1  0  0  0  0
 16 17  1  0  0  0  0
 16 28  1  0  0  0  0
M  END
> <PUBCHEM_COMPOUND_CID>
101688442

> <PUBCHEM_CONFORMER_RMSD>
0.8

> <PUBCHEM_CONFORMER_DIVERSEORDER>
1
7
15
18
26
28
2
4
12
24
10
21
25
22
14
27
11
13
17
16
20
6
19
8
5
29
3
23
9

> <PUBCHEM_MMFF94_PARTIAL_CHARGES>
26
1 -0.43
10 0.71
11 -0.18
12 -0.14
13 -0.15
14 -0.15
15 -0.15
16 -0.15
17 0.08
2 -0.68
23 0.15
24 0.15
25 0.15
26 0.15
27 0.15
28 0.15
29 0.4
3 -0.68
30 0.4
31 0.45
4 -0.57
5 -0.53
6 0.28
7 0.28
8 0.28
9 0.03

> <PUBCHEM_EFFECTIVE_ROTOR_COUNT>
6

> <PUBCHEM_PHARMACOPHORE_FEATURES>
7
1 2 acceptor
1 2 donor
1 3 acceptor
1 3 donor
1 4 acceptor
1 5 donor
6 9 13 14 15 16 17 rings

> <PUBCHEM_HEAVY_ATOM_COUNT>
17

> <PUBCHEM_ATOM_DEF_STEREO_COUNT>
0

> <PUBCHEM_ATOM_UDEF_STEREO_COUNT>
0

> <PUBCHEM_BOND_DEF_STEREO_COUNT>
1

> <PUBCHEM_BOND_UDEF_STEREO_COUNT>
0

> <PUBCHEM_ISOTOPIC_ATOM_COUNT>
0

> <PUBCHEM_COMPONENT_COUNT>
1

> <PUBCHEM_CACTVS_TAUTO_COUNT>
4

> <PUBCHEM_CONFORMER_ID>
060FA47A00000001

> <PUBCHEM_MMFF94_ENERGY>
40.1186

> <PUBCHEM_FEATURE_SELFOVERLAP>
35.522

> <PUBCHEM_SHAPE_FINGERPRINT>
10014705 185 18272644662642154839
10354089 29 18202007655139530898
10680689 15 18334297578452588239
10912923 1 16559030463094055639
11046707 91 15213304166224271235
11089746 13 16128649765485409554
12091667 2 18334573559854754534
12507557 5 18413390947196383233
12596602 18 17458061590769926552
13214271 11 18259701199191585015
13583140 156 18335138696189285115
13675066 3 18334580143860277847
15188451 53 17240767354077245035
17844677 252 18186527626057187860
19433438 28 18260831518340336601
19489759 90 17821443565399924157
20281389 69 18343578568998135968
20300324 65 14692571009723328659
20645477 56 18343016709459739372
20645477 70 18059011683664282598
21033648 29 18340754992851988985
23402539 116 18335412487126456030
23402655 69 17988920081152024436
23559900 14 17750524961623042110
26918003 58 18040152928753773136
2916195 48 18336540607790048448
300161 21 17917419943836085518
3545911 37 18131351933868344878
4214541 1 18343299288343375735
5104073 3 18261675865713060083
542803 24 17821449066920727668
57265010 4 17312825966201405881
602551 16 16878234159389158554
7495541 125 16371012957448754476
90127 26 18334861605994251973

> <PUBCHEM_SHAPE_MULTIPOLES>
320.51
13.49
1.46
1.12
1.37
0.2
0.37
3.35
2.41
-0.29
-0.3
-1.7
-0.04
1.3

> <PUBCHEM_SHAPE_SELFOVERLAP>
656.44

> <PUBCHEM_SHAPE_VOLUME>
183.5

> <PUBCHEM_COORDINATE_TYPE>
2
5
10

$$$$
