11974586
  -OEChem-09042012073D

 37 37  0     0  0  0  0  0  0999 V2000
    0.1661   -1.6860    0.0958 O   0  0  0  0  0  0  0  0  0  0  0  0
   -3.9889    0.7078    0.1983 O   0  0  0  0  0  0  0  0  0  0  0  0
    0.7890   -0.9887    2.1969 O   0  0  0  0  0  0  0  0  0  0  0  0
   -2.3367   -0.1041   -1.1911 O   0  0  0  0  0  0  0  0  0  0  0  0
   -0.3464    0.5157    0.6937 C   0  0  0  0  0  0  0  0  0  0  0  0
   -1.7947    0.7856    1.0160 C   0  0  0  0  0  0  0  0  0  0  0  0
    0.4887    1.3844    0.0906 C   0  0  0  0  0  0  0  0  0  0  0  0
    1.9110    1.1350   -0.1700 C   0  0  0  0  0  0  0  0  0  0  0  0
    0.2695   -0.7833    1.1088 C   0  0  0  0  0  0  0  0  0  0  0  0
   -2.7002    0.3979   -0.1362 C   0  0  0  0  0  0  0  0  0  0  0  0
    2.8552    1.4965    0.7818 C   0  0  0  0  0  0  0  0  0  0  0  0
    2.2943    0.5401   -1.3647 C   0  0  0  0  0  0  0  0  0  0  0  0
    4.2073    1.2590    0.5345 C   0  0  0  0  0  0  0  0  0  0  0  0
    3.6463    0.3024   -1.6120 C   0  0  0  0  0  0  0  0  0  0  0  0
    0.7224   -2.9792    0.3556 C   0  0  0  0  0  0  0  0  0  0  0  0
   -4.9729    0.4051   -0.7958 C   0  0  0  0  0  0  0  0  0  0  0  0
    4.6028    0.6619   -0.6624 C   0  0  0  0  0  0  0  0  0  0  0  0
    0.5248   -3.8549   -0.8633 C   0  0  0  0  0  0  0  0  0  0  0  0
   -6.3376    0.8046   -0.2764 C   0  0  0  0  0  0  0  0  0  0  0  0
   -2.0906    0.2188    1.9055 H   0  0  0  0  0  0  0  0  0  0  0  0
   -1.9352    1.8531    1.2221 H   0  0  0  0  0  0  0  0  0  0  0  0
    0.1225    2.3581   -0.2247 H   0  0  0  0  0  0  0  0  0  0  0  0
    2.5607    1.9625    1.7187 H   0  0  0  0  0  0  0  0  0  0  0  0
    1.5593    0.2548   -2.1130 H   0  0  0  0  0  0  0  0  0  0  0  0
    1.7923   -2.8791    0.5700 H   0  0  0  0  0  0  0  0  0  0  0  0
    0.2181   -3.4268    1.2191 H   0  0  0  0  0  0  0  0  0  0  0  0
   -4.7485    0.9612   -1.7128 H   0  0  0  0  0  0  0  0  0  0  0  0
   -4.9580   -0.6695   -1.0090 H   0  0  0  0  0  0  0  0  0  0  0  0
    4.9521    1.5386    1.2739 H   0  0  0  0  0  0  0  0  0  0  0  0
    3.9543   -0.1630   -2.5437 H   0  0  0  0  0  0  0  0  0  0  0  0
    5.6554    0.4766   -0.8550 H   0  0  0  0  0  0  0  0  0  0  0  0
    0.9395   -4.8534   -0.6994 H   0  0  0  0  0  0  0  0  0  0  0  0
   -0.5398   -3.9483   -1.1019 H   0  0  0  0  0  0  0  0  0  0  0  0
    1.0088   -3.4100   -1.7391 H   0  0  0  0  0  0  0  0  0  0  0  0
   -7.1157    0.5866   -1.0132 H   0  0  0  0  0  0  0  0  0  0  0  0
   -6.5687    0.2699    0.6508 H   0  0  0  0  0  0  0  0  0  0  0  0
   -6.3627    1.8738   -0.0414 H   0  0  0  0  0  0  0  0  0  0  0  0
  1  9  1  0  0  0  0
  1 15  1  0  0  0  0
  2 10  1  0  0  0  0
  2 16  1  0  0  0  0
  3  9  2  0  0  0  0
  4 10  2  0  0  0  0
  5  6  1  0  0  0  0
  5  7  2  0  0  0  0
  5  9  1  0  0  0  0
  6 10  1  0  0  0  0
  6 20  1  0  0  0  0
  6 21  1  0  0  0  0
  7  8  1  0  0  0  0
  7 22  1  0  0  0  0
  8 11  2  0  0  0  0
  8 12  1  0  0  0  0
 11 13  1  0  0  0  0
 11 23  1  0  0  0  0
 12 14  2  0  0  0  0
 12 24  1  0  0  0  0
 13 17  2  0  0  0  0
 13 29  1  0  0  0  0
 14 17  1  0  0  0  0
 14 30  1  0  0  0  0
 15 18  1  0  0  0  0
 15 25  1  0  0  0  0
 15 26  1  0  0  0  0
 16 19  1  0  0  0  0
 16 27  1  0  0  0  0
 16 28  1  0  0  0  0
 17 31  1  0  0  0  0
 18 32  1  0  0  0  0
 18 33  1  0  0  0  0
 18 34  1  0  0  0  0
 19 35  1  0  0  0  0
 19 36  1  0  0  0  0
 19 37  1  0  0  0  0
M  END
> <PUBCHEM_COMPOUND_CID>
11974586

> <PUBCHEM_CONFORMER_RMSD>
0.8

> <PUBCHEM_CONFORMER_DIVERSEORDER>
1
87
97
5
58
23
96
16
29
94
81
83
66
107
13
54
72
12
41
42
67
11
52
40
101
62
60
19
17
35
55
102
14
98
65
57
32
68
39
91
86
82
64
20
69
108
74
106
76
44
28
8
30
105
110
73
37
75
18
53
85
103
80
89
25
93
70
79
22
21
27
90
24
4
92
84
88
43
31
78
95
46
38
47
6
45
104
59
26
33
7
36
48
15
100
109
99
71
63
77
2
34
56
49
3
10
9
61
51
50

> <PUBCHEM_MMFF94_PARTIAL_CHARGES>
23
1 -0.43
10 0.66
11 -0.15
12 -0.15
13 -0.15
14 -0.15
15 0.28
16 0.28
17 -0.15
2 -0.43
22 0.15
23 0.15
24 0.15
29 0.15
3 -0.57
30 0.15
31 0.15
4 -0.57
5 -0.12
6 0.2
7 -0.18
8 0.03
9 0.71

> <PUBCHEM_EFFECTIVE_ROTOR_COUNT>
8

> <PUBCHEM_PHARMACOPHORE_FEATURES>
3
1 3 acceptor
1 4 acceptor
6 8 11 12 13 14 17 rings

> <PUBCHEM_HEAVY_ATOM_COUNT>
19

> <PUBCHEM_ATOM_DEF_STEREO_COUNT>
0

> <PUBCHEM_ATOM_UDEF_STEREO_COUNT>
0

> <PUBCHEM_BOND_DEF_STEREO_COUNT>
1

> <PUBCHEM_BOND_UDEF_STEREO_COUNT>
0

> <PUBCHEM_ISOTOPIC_ATOM_COUNT>
0

> <PUBCHEM_COMPONENT_COUNT>
1

> <PUBCHEM_CACTVS_TAUTO_COUNT>
1

> <PUBCHEM_CONFORMER_ID>
00B6B7BA00000001

> <PUBCHEM_MMFF94_ENERGY>
38.594

> <PUBCHEM_FEATURE_SELFOVERLAP>
15.223

> <PUBCHEM_SHAPE_FINGERPRINT>
12592029 89 18410293584006482291
12616999 72 18409724033263157995
12623949 98 13407340829523368081
12730499 353 18409175402767696411
13931106 250 17983020239202158598
14251751 93 18268710683279789335
14863182 85 18200015249433245147
15207287 21 18060430114267967444
15502722 9 18335984147505824447
16752209 62 18119247509063733874
17844478 74 10665492076915757956
18186145 218 18412259570937323100
18222031 100 9439407934177086905
200 152 15554458383517403700
20567600 347 18335422352592903931
20645476 183 16951139507278392056
20645477 70 18262514784985728283
21054139 6 18269822272619125111
21069387 34 17274282594558535132
21344244 181 17775299282379930039
21344244 246 18270408170393515662
21524375 3 18113619010092928528
22713019 99 18341060644341487780
23402539 116 18271518801400969932
23419403 2 17322445515480381314
23559900 14 18271532004937546244
266924 1 17844819083616674273
298252 57 18334576879912019050
3060560 45 18410851070682329829
4072396 5 17822279180788182192
4325135 7 17167863102174193859
4340502 62 18408890637872462623
4990 188 18202846573642248309
59755656 215 18188210901070649895
69090 78 18339924913191311416
7364860 26 18267862787583208091
7495541 125 14620505766306714581
81228 2 17615409594184834186
81539 233 17894628132485307587

> <PUBCHEM_SHAPE_MULTIPOLES>
367.53
9.64
2.68
1.42
12.88
4.52
0.15
-6.02
-3.28
-1.22
-0.13
-0.7
0.17
0.1

> <PUBCHEM_SHAPE_SELFOVERLAP>
746.743

> <PUBCHEM_SHAPE_VOLUME>
213.7

> <PUBCHEM_COORDINATE_TYPE>
2
5
10

$$$$
