22676887
  -OEChem-09042012143D

 38 37  0     1  0  0  0  0  0999 V2000
    1.4142    1.3331   -0.3331 O   0  0  0  0  0  0  0  0  0  0  0  0
    3.5683    0.6840    0.1780 O   0  0  0  0  0  0  0  0  0  0  0  0
    1.6275   -1.9228   -0.2275 C   0  0  1  0  0  0  0  0  0  0  0  0
    0.3353   -1.6049    0.5511 C   0  0  0  0  0  0  0  0  0  0  0  0
   -0.8084   -1.1071   -0.3391 C   0  0  0  0  0  0  0  0  0  0  0  0
   -2.0556   -0.7928    0.4919 C   0  0  0  0  0  0  0  0  0  0  0  0
    2.1335   -0.7727   -1.1118 C   0  0  0  0  0  0  0  0  0  0  0  0
   -3.2258   -0.2643   -0.3428 C   0  0  0  0  0  0  0  0  0  0  0  0
    2.7152   -2.3969    0.7428 C   0  0  0  0  0  0  0  0  0  0  0  0
   -4.4941   -0.0189    0.4758 C   0  0  0  0  0  0  0  0  0  0  0  0
    2.4817    0.4852   -0.3499 C   0  0  0  0  0  0  0  0  0  0  0  0
   -5.6454    0.4345   -0.4089 C   0  0  0  0  0  0  0  0  0  0  0  0
    1.6113    2.5609    0.3746 C   0  0  0  0  0  0  0  0  0  0  0  0
    0.3423    3.3827    0.2991 C   0  0  0  0  0  0  0  0  0  0  0  0
    1.4075   -2.7635   -0.8994 H   0  0  0  0  0  0  0  0  0  0  0  0
    0.0082   -2.5084    1.0818 H   0  0  0  0  0  0  0  0  0  0  0  0
    0.5452   -0.8529    1.3223 H   0  0  0  0  0  0  0  0  0  0  0  0
   -0.5262   -0.2033   -0.8849 H   0  0  0  0  0  0  0  0  0  0  0  0
   -1.0487   -1.8725   -1.0867 H   0  0  0  0  0  0  0  0  0  0  0  0
   -1.8040   -0.0506    1.2598 H   0  0  0  0  0  0  0  0  0  0  0  0
   -2.3727   -1.7005    1.0201 H   0  0  0  0  0  0  0  0  0  0  0  0
    3.0415   -1.0841   -1.6448 H   0  0  0  0  0  0  0  0  0  0  0  0
    1.4177   -0.5297   -1.9052 H   0  0  0  0  0  0  0  0  0  0  0  0
   -2.9244    0.6684   -0.8355 H   0  0  0  0  0  0  0  0  0  0  0  0
   -3.4464   -0.9857   -1.1395 H   0  0  0  0  0  0  0  0  0  0  0  0
    2.9437   -1.6393    1.4994 H   0  0  0  0  0  0  0  0  0  0  0  0
    2.3921   -3.3024    1.2678 H   0  0  0  0  0  0  0  0  0  0  0  0
    3.6395   -2.6366    0.2069 H   0  0  0  0  0  0  0  0  0  0  0  0
   -4.3000    0.7418    1.2405 H   0  0  0  0  0  0  0  0  0  0  0  0
   -4.7832   -0.9385    0.9976 H   0  0  0  0  0  0  0  0  0  0  0  0
   -5.3986    1.3673   -0.9259 H   0  0  0  0  0  0  0  0  0  0  0  0
   -6.5416    0.6075    0.1951 H   0  0  0  0  0  0  0  0  0  0  0  0
   -5.8843   -0.3233   -1.1619 H   0  0  0  0  0  0  0  0  0  0  0  0
    2.4397    3.1157   -0.0798 H   0  0  0  0  0  0  0  0  0  0  0  0
    1.8497    2.3437    1.4217 H   0  0  0  0  0  0  0  0  0  0  0  0
    0.0818    3.5941   -0.7433 H   0  0  0  0  0  0  0  0  0  0  0  0
   -0.4995    2.8311    0.7308 H   0  0  0  0  0  0  0  0  0  0  0  0
    0.4566    4.3296    0.8340 H   0  0  0  0  0  0  0  0  0  0  0  0
  1 11  1  0  0  0  0
  1 13  1  0  0  0  0
  2 11  2  0  0  0  0
  3  4  1  0  0  0  0
  3  7  1  0  0  0  0
  3  9  1  0  0  0  0
  3 15  1  0  0  0  0
  4  5  1  0  0  0  0
  4 16  1  0  0  0  0
  4 17  1  0  0  0  0
  5  6  1  0  0  0  0
  5 18  1  0  0  0  0
  5 19  1  0  0  0  0
  6  8  1  0  0  0  0
  6 20  1  0  0  0  0
  6 21  1  0  0  0  0
  7 11  1  0  0  0  0
  7 22  1  0  0  0  0
  7 23  1  0  0  0  0
  8 10  1  0  0  0  0
  8 24  1  0  0  0  0
  8 25  1  0  0  0  0
  9 26  1  0  0  0  0
  9 27  1  0  0  0  0
  9 28  1  0  0  0  0
 10 12  1  0  0  0  0
 10 29  1  0  0  0  0
 10 30  1  0  0  0  0
 12 31  1  0  0  0  0
 12 32  1  0  0  0  0
 12 33  1  0  0  0  0
 13 14  1  0  0  0  0
 13 34  1  0  0  0  0
 13 35  1  0  0  0  0
 14 36  1  0  0  0  0
 14 37  1  0  0  0  0
 14 38  1  0  0  0  0
M  END
> <PUBCHEM_COMPOUND_CID>
22676887

> <PUBCHEM_CONFORMER_RMSD>
1

> <PUBCHEM_CONFORMER_DIVERSEORDER>
1
4
39
112
103
68
59
98
92
85
66
47
36
25
30
37
45
108
100
80
115
46
124
116
10
69
73
42
15
53
49
23
76
83
86
19
43
3
13
31
104
2
111
50
99
12
70
33
87
106
75
8
95
54
123
16
82
32
21
94
74
56
27
44
96
34
72
93
57
51
84
9
78
97
14
58
79
117
88
65
48
120
122
60
41
101
29
71
119
18
7
52
114
17
118
62
40
102
6
35
81
22
110
105
11
109
64
113
121
26
28
5
24
20
38
91
55
61
107
89
63
67
77
90

> <PUBCHEM_MMFF94_PARTIAL_CHARGES>
5
1 -0.43
11 0.66
13 0.28
2 -0.57
7 0.06

> <PUBCHEM_EFFECTIVE_ROTOR_COUNT>
9

> <PUBCHEM_PHARMACOPHORE_FEATURES>
3
1 12 hydrophobe
1 2 acceptor
1 9 hydrophobe

> <PUBCHEM_HEAVY_ATOM_COUNT>
14

> <PUBCHEM_ATOM_DEF_STEREO_COUNT>
0

> <PUBCHEM_ATOM_UDEF_STEREO_COUNT>
1

> <PUBCHEM_BOND_DEF_STEREO_COUNT>
0

> <PUBCHEM_BOND_UDEF_STEREO_COUNT>
0

> <PUBCHEM_ISOTOPIC_ATOM_COUNT>
0

> <PUBCHEM_COMPONENT_COUNT>
1

> <PUBCHEM_CACTVS_TAUTO_COUNT>
1

> <PUBCHEM_CONFORMER_ID>
015A059700000001

> <PUBCHEM_MMFF94_ENERGY>
5.9347

> <PUBCHEM_FEATURE_SELFOVERLAP>
15.223

> <PUBCHEM_SHAPE_FINGERPRINT>
10980938 120 18410859858291009927
11471102 20 18410856551350736831
12654215 9 18408611374387080614
14178000 15 18266176119635214002
14251717 144 18412265043094384205
20233049 118 18261679272060157084
20606313 2 18411983559206089471
20621476 13 18267864063748268265
21041028 32 18193830453560962006
212847 35 18113904814750250895
21524375 3 17766000884410383022
21639500 275 18338786910087734447
22289505 5 18336542725193140277
3014063 31 18338515223531986357
3060560 45 17988933262032564702
3524813 1 18260259755283076205
5939293 188 18340766056566235504
7832392 63 18342736364043960575

> <PUBCHEM_SHAPE_MULTIPOLES>
276.37
8.15
3.17
0.86
14.49
2.73
0.05
-0.23
0.42
-3.02
-0.69
-0.16
-0.18
-0.03

> <PUBCHEM_SHAPE_SELFOVERLAP>
505.158

> <PUBCHEM_SHAPE_VOLUME>
176.4

> <PUBCHEM_COORDINATE_TYPE>
2
5
10

$$$$
