129637775
  -OEChem-09292009143D

 39 39  0     1  0  0  0  0  0999 V2000
    3.6874   -2.4920    0.3545 O   0  0  0  0  0  0  0  0  0  0  0  0
    5.5513   -0.3732   -0.3879 O   0  0  0  0  0  0  0  0  0  0  0  0
    1.8196   -1.4938    2.3245 O   0  0  0  0  0  0  0  0  0  0  0  0
   -0.1678   -0.8326    0.2235 O   0  0  0  0  0  0  0  0  0  0  0  0
    4.1882    1.7892    0.8807 O   0  0  0  0  0  0  0  0  0  0  0  0
    5.2343    2.9811   -1.2569 O   0  0  0  0  0  0  0  0  0  0  0  0
   -1.0551   -2.1193   -1.4667 O   0  0  0  0  0  0  0  0  0  0  0  0
   -3.6752    2.0767    1.9049 O   0  0  0  0  0  0  0  0  0  0  0  0
   -5.8676   -0.4207   -1.5442 O   0  0  0  0  0  0  0  0  0  0  0  0
   -5.9555    1.5129    0.4367 O   0  0  0  0  0  0  0  0  0  0  0  0
    3.5571   -1.1115    0.7101 C   0  0  1  0  0  0  0  0  0  0  0  0
    4.1264   -0.2246   -0.4109 C   0  0  1  0  0  0  0  0  0  0  0  0
    2.0816   -0.8685    1.0597 C   0  0  1  0  0  0  0  0  0  0  0  0
    3.7615    1.2655   -0.3725 C   0  0  2  0  0  0  0  0  0  0  0  0
    1.0992   -1.4631    0.0563 C   0  0  0  0  0  0  0  0  0  0  0  0
    4.4199    2.0863   -1.4622 C   0  0  0  0  0  0  0  0  0  0  0  0
   -1.1578   -1.2585   -0.6064 C   0  0  0  0  0  0  0  0  0  0  0  0
   -2.4206   -0.5272   -0.3327 C   0  0  0  0  0  0  0  0  0  0  0  0
   -2.4616    0.4443    0.6673 C   0  0  0  0  0  0  0  0  0  0  0  0
   -3.5671   -0.8137   -1.0739 C   0  0  0  0  0  0  0  0  0  0  0  0
   -3.6489    1.1293    0.9262 C   0  0  0  0  0  0  0  0  0  0  0  0
   -4.7544   -0.1289   -0.8150 C   0  0  0  0  0  0  0  0  0  0  0  0
   -4.7952    0.8425    0.1850 C   0  0  0  0  0  0  0  0  0  0  0  0
    4.1701   -0.9779    1.6109 H   0  0  0  0  0  0  0  0  0  0  0  0
    3.8063   -0.6367   -1.3765 H   0  0  0  0  0  0  0  0  0  0  0  0
    1.8870    0.1960    1.2194 H   0  0  0  0  0  0  0  0  0  0  0  0
    2.6824    1.4192   -0.4631 H   0  0  0  0  0  0  0  0  0  0  0  0
    0.9825   -2.5424    0.2111 H   0  0  0  0  0  0  0  0  0  0  0  0
    1.4398   -1.2711   -0.9672 H   0  0  0  0  0  0  0  0  0  0  0  0
    3.3781   -3.0192    1.1111 H   0  0  0  0  0  0  0  0  0  0  0  0
    5.9072    0.0307   -1.1973 H   0  0  0  0  0  0  0  0  0  0  0  0
    0.8877   -1.3236    2.5455 H   0  0  0  0  0  0  0  0  0  0  0  0
    4.1144    1.8306   -2.4915 H   0  0  0  0  0  0  0  0  0  0  0  0
    5.1355    1.5921    0.9799 H   0  0  0  0  0  0  0  0  0  0  0  0
   -1.5849    0.6891    1.2612 H   1  0  0  0  0  0  0  0  0  0  0  0
   -3.5420   -1.5706   -1.8542 H   0  0  0  0  0  0  0  0  0  0  0  0
   -2.7938    2.1404    2.3109 H   0  0  0  0  0  0  0  0  0  0  0  0
   -5.6520   -1.1167   -2.1885 H   0  0  0  0  0  0  0  0  0  0  0  0
   -5.7945    2.1447    1.1590 H   0  0  0  0  0  0  0  0  0  0  0  0
  1 11  1  0  0  0  0
  1 30  1  0  0  0  0
  2 12  1  0  0  0  0
  2 31  1  0  0  0  0
  3 13  1  0  0  0  0
  3 32  1  0  0  0  0
  4 15  1  0  0  0  0
  4 17  1  0  0  0  0
  5 14  1  0  0  0  0
  5 34  1  0  0  0  0
  6 16  2  0  0  0  0
  7 17  2  0  0  0  0
  8 21  1  0  0  0  0
  8 37  1  0  0  0  0
  9 22  1  0  0  0  0
  9 38  1  0  0  0  0
 10 23  1  0  0  0  0
 10 39  1  0  0  0  0
 11 12  1  0  0  0  0
 11 13  1  0  0  0  0
 11 24  1  0  0  0  0
 12 14  1  0  0  0  0
 12 25  1  0  0  0  0
 13 15  1  0  0  0  0
 13 26  1  0  0  0  0
 14 16  1  0  0  0  0
 14 27  1  0  0  0  0
 15 28  1  0  0  0  0
 15 29  1  0  0  0  0
 16 33  1  0  0  0  0
 17 18  1  0  0  0  0
 18 19  1  0  0  0  0
 18 20  2  0  0  0  0
 19 21  2  0  0  0  0
 19 35  1  0  0  0  0
 20 22  1  0  0  0  0
 20 36  1  0  0  0  0
 21 23  1  0  0  0  0
 22 23  2  0  0  0  0
M  ISO  1  35   2
M  END
> <PUBCHEM_COMPOUND_CID>
129637775

> <PUBCHEM_CONFORMER_RMSD>
0.8

> <PUBCHEM_CONFORMER_DIVERSEORDER>
1
165
108
119
208
118
75
149
211
121
12
47
84
44
178
240
150
179
32
38
221
123
112
113
233
124
142
235
46
28
162
232
205
204
128
62
49
2
92
109
117
101
209
186
48
77
174
52
13
87
247
196
18
161
173
223
132
227
248
220
175
80
136
88
189
157
194
170
106
246
125
73
198
234
100
102
110
122
177
214
135
34
31
239
210
16
230
226
23
81
65
11
250
76
147
191
37
66
241
126
95
56
203
151
58
107
222
192
115
249
228
40
59
217
68
202
225
78
181
26
25
8
193
20
133
60
188
61
148
116
207
238
4
146
212
213
182
24
244
215
6
166
91
172
94
138
152
155
53
21
33
243
134
229
99
67
72
90
129
237
141
9
130
14
7
216
70
98
93
219
245
15
74
176
111
251
69
167
231
224
19
55
114
97
17
30
206
180
199
85
29
190
35
140
187
218
143
3
242
131
79
197
159
57
200
195
120
71
86
22
127
144
83
39
156
27
64
43
5
104
168
42
10
139
169
153
201
36
145
171
82
105
184
45
63
163
154
164
160
185
103
183
51
158
236
41
137
96
89
50
54

> <PUBCHEM_MMFF94_PARTIAL_CHARGES>
33
1 -0.68
10 -0.53
11 0.28
12 0.28
13 0.28
14 0.34
15 0.28
16 0.45
17 0.63
18 0.09
19 -0.15
2 -0.68
20 -0.15
21 0.08
22 0.08
23 0.08
3 -0.68
30 0.4
31 0.4
32 0.4
33 0.06
34 0.4
35 0.15
36 0.15
37 0.45
38 0.45
39 0.45
4 -0.43
5 -0.68
6 -0.57
7 -0.57
8 -0.53
9 -0.53

> <PUBCHEM_EFFECTIVE_ROTOR_COUNT>
8

> <PUBCHEM_PHARMACOPHORE_FEATURES>
14
1 1 acceptor
1 1 donor
1 10 donor
1 2 acceptor
1 2 donor
1 3 acceptor
1 3 donor
1 5 acceptor
1 5 donor
1 6 acceptor
1 7 acceptor
1 8 donor
1 9 donor
6 18 19 20 21 22 23 rings

> <PUBCHEM_HEAVY_ATOM_COUNT>
23

> <PUBCHEM_ATOM_DEF_STEREO_COUNT>
4

> <PUBCHEM_ATOM_UDEF_STEREO_COUNT>
0

> <PUBCHEM_BOND_DEF_STEREO_COUNT>
0

> <PUBCHEM_BOND_UDEF_STEREO_COUNT>
0

> <PUBCHEM_ISOTOPIC_ATOM_COUNT>
1

> <PUBCHEM_COMPONENT_COUNT>
1

> <PUBCHEM_CACTVS_TAUTO_COUNT>
140

> <PUBCHEM_CONFORMER_ID>
07BA1D8F00000001

> <PUBCHEM_MMFF94_ENERGY>
54.2699

> <PUBCHEM_FEATURE_SELFOVERLAP>
71.085

> <PUBCHEM_SHAPE_FINGERPRINT>
10319926 262 13696409068284981320
10615611 76 18340223902834146089
10670039 82 18059576853983777224
10906281 52 18202291269579705983
11112241 14 17313104189619166361
12236239 1 18412540990026497027
12596602 18 18260271858664173627
13590594 115 18044374921120348336
13955234 65 17531237306433992082
1420 369 9151179752869422068
14251764 30 10954829588721899280
14251764 75 18117008873630876692
14528608 73 18341891913364844429
14739800 52 17987781030203288000
14840074 17 18335710442262628805
14848178 96 18260831561596185348
15142526 21 17968097594206246864
15183329 4 18130516249718997486
15342168 16 18040714826762084014
15575132 122 18411419480241311237
1768 23 17986979391468684137
21033648 29 16515397461079615215
21033650 10 16845033241994496314
21315763 76 18261944249893605428
21503847 285 18260270729135123778
22122407 14 18114752508251306553
23366157 5 17841441332409955439
23559900 14 16845558829600375754
245318 6 18262532488550909196
3004659 81 17917433065125270486
3298306 158 16272208561432464887
3729539 64 14548197418903138021
38570 142 18189635954820374004
474 4 18186800318337143226
5104073 3 17676486185318293978
542803 24 18409162182668617483
543368 44 18339360885043096765
54446538 1 18341891879047238936
6034566 193 17317064742161191908
633830 44 18408040688944903718
90127 26 17604145909438748759
960060 61 14045750356680188784

> <PUBCHEM_SHAPE_MULTIPOLES>
414.64
14.49
2.47
1.54
2.29
0.85
-0.32
7.46
2.73
-3.07
0.15
0.31
0.11
-3.05

> <PUBCHEM_SHAPE_SELFOVERLAP>
858.293

> <PUBCHEM_SHAPE_VOLUME>
235

> <PUBCHEM_COORDINATE_TYPE>
2
5
10

$$$$
