442765
  -OEChem-08272011403D

 30 32  0     0  0  0  0  0  0999 V2000
    1.6642    2.4189    0.0279 O   0  0  0  0  0  0  0  0  0  0  0  0
    1.0037   -3.0627    0.0044 O   0  0  0  0  0  0  0  0  0  0  0  0
   -0.8912    2.6405    0.0173 O   0  0  0  0  0  0  0  0  0  0  0  0
   -1.5369   -2.6637   -0.0027 O   0  0  0  0  0  0  0  0  0  0  0  0
    3.4848   -1.9783    0.0216 O   0  0  0  0  0  0  0  0  0  0  0  0
    4.3934    0.9985   -1.2201 O   0  0  0  0  0  0  0  0  0  0  0  0
    4.5615    1.0648    1.0458 O   0  0  0  0  0  0  0  0  0  0  0  0
    0.1631    0.5238    0.0150 C   0  0  0  0  0  0  0  0  0  0  0  0
   -0.0059   -0.8623    0.0091 C   0  0  0  0  0  0  0  0  0  0  0  0
   -2.3642    0.8321    0.0025 C   0  0  0  0  0  0  0  0  0  0  0  0
   -2.5332   -0.5541   -0.0032 C   0  0  0  0  0  0  0  0  0  0  0  0
   -1.0099    1.4217    0.0118 C   0  0  0  0  0  0  0  0  0  0  0  0
   -1.3602   -1.4520    0.0006 C   0  0  0  0  0  0  0  0  0  0  0  0
    1.4523    1.0700    0.0232 C   0  0  0  0  0  0  0  0  0  0  0  0
    1.1140   -1.7024    0.0112 C   0  0  0  0  0  0  0  0  0  0  0  0
    2.5657    0.2292    0.0249 C   0  0  0  0  0  0  0  0  0  0  0  0
    2.3969   -1.1539    0.0189 C   0  0  0  0  0  0  0  0  0  0  0  0
   -3.4842    1.6720   -0.0014 C   0  0  0  0  0  0  0  0  0  0  0  0
   -3.8223   -1.1003   -0.0129 C   0  0  0  0  0  0  0  0  0  0  0  0
   -4.7670    1.1236   -0.0113 C   0  0  0  0  0  0  0  0  0  0  0  0
   -4.9358   -0.2596   -0.0172 C   0  0  0  0  0  0  0  0  0  0  0  0
    3.9114    0.7943    0.0345 C   0  0  0  0  0  0  0  0  0  0  0  0
   -3.3814    2.7538    0.0028 H   0  0  0  0  0  0  0  0  0  0  0  0
   -3.9824   -2.1750   -0.0176 H   0  0  0  0  0  0  0  0  0  0  0  0
   -5.6355    1.7759   -0.0145 H   0  0  0  0  0  0  0  0  0  0  0  0
   -5.9356   -0.6841   -0.0249 H   0  0  0  0  0  0  0  0  0  0  0  0
    2.6099    2.6339    0.0294 H   0  0  0  0  0  0  0  0  0  0  0  0
    0.0746   -3.3360   -0.0044 H   0  0  0  0  0  0  0  0  0  0  0  0
    3.1728   -2.8998    0.0168 H   0  0  0  0  0  0  0  0  0  0  0  0
    5.2978    1.3782   -1.2067 H   0  0  0  0  0  0  0  0  0  0  0  0
  1 14  1  0  0  0  0
  1 27  1  0  0  0  0
  2 15  1  0  0  0  0
  2 28  1  0  0  0  0
  3 12  2  0  0  0  0
  4 13  2  0  0  0  0
  5 17  1  0  0  0  0
  5 29  1  0  0  0  0
  6 22  1  0  0  0  0
  6 30  1  0  0  0  0
  7 22  2  0  0  0  0
  8  9  2  0  0  0  0
  8 12  1  0  0  0  0
  8 14  1  0  0  0  0
  9 13  1  0  0  0  0
  9 15  1  0  0  0  0
 10 11  1  0  0  0  0
 10 12  1  0  0  0  0
 10 18  2  0  0  0  0
 11 13  1  0  0  0  0
 11 19  2  0  0  0  0
 14 16  2  0  0  0  0
 15 17  2  0  0  0  0
 16 17  1  0  0  0  0
 16 22  1  0  0  0  0
 18 20  1  0  0  0  0
 18 23  1  0  0  0  0
 19 21  1  0  0  0  0
 19 24  1  0  0  0  0
 20 21  2  0  0  0  0
 20 25  1  0  0  0  0
 21 26  1  0  0  0  0
M  END
> <PUBCHEM_COMPOUND_CID>
442765

> <PUBCHEM_CONFORMER_RMSD>
0.6

> <PUBCHEM_CONFORMER_DIVERSEORDER>
1

> <PUBCHEM_MMFF94_PARTIAL_CHARGES>
30
1 -0.53
10 0.09
11 0.09
12 0.4
13 0.4
14 0.08
15 0.08
16 0.09
17 0.08
18 -0.15
19 -0.15
2 -0.53
20 -0.15
21 -0.15
22 0.63
23 0.15
24 0.15
25 0.15
26 0.15
27 0.45
28 0.45
29 0.45
3 -0.57
30 0.5
4 -0.57
5 -0.53
6 -0.65
7 -0.57
8 0.09
9 0.09

> <PUBCHEM_EFFECTIVE_ROTOR_COUNT>
1

> <PUBCHEM_PHARMACOPHORE_FEATURES>
11
1 1 donor
1 2 donor
1 3 acceptor
1 4 acceptor
1 5 donor
1 6 acceptor
1 7 acceptor
3 6 7 22 anion
6 10 11 18 19 20 21 rings
6 8 9 10 11 12 13 rings
6 8 9 14 15 16 17 rings

> <PUBCHEM_HEAVY_ATOM_COUNT>
22

> <PUBCHEM_ATOM_DEF_STEREO_COUNT>
0

> <PUBCHEM_ATOM_UDEF_STEREO_COUNT>
0

> <PUBCHEM_BOND_DEF_STEREO_COUNT>
0

> <PUBCHEM_BOND_UDEF_STEREO_COUNT>
0

> <PUBCHEM_ISOTOPIC_ATOM_COUNT>
0

> <PUBCHEM_COMPONENT_COUNT>
1

> <PUBCHEM_CACTVS_TAUTO_COUNT>
42

> <PUBCHEM_CONFORMER_ID>
0006C18D00000001

> <PUBCHEM_MMFF94_ENERGY>
76.1975

> <PUBCHEM_FEATURE_SELFOVERLAP>
55.927

> <PUBCHEM_SHAPE_FINGERPRINT>
10411042 1 17474107601494231223
10498660 4 18410576162800376509
10616163 171 18338519763000857007
10967382 1 18410855460133443051
11112241 14 16341147000028233120
11132069 177 18409445890516502257
11471102 20 18410570665421358279
12011746 2 18411703187904111941
12236239 1 17749387109528608936
12403814 3 17530959198647947677
12838862 33 18339059571464953961
12954195 1 17914638093576768180
13140716 1 18194396921087493152
13221675 6 18410291415148055523
138480 1 17906452121580301403
14790565 3 18264779941963821948
15196674 1 18410855430437976075
15442244 35 18122906425957179539
15536298 74 18342176630973343599
1601671 61 18408041831727659060
16945 1 18410855477318580490
19591789 44 18339080367606716094
200 152 18131344220581815429
20028762 73 17985549107319705775
20510252 161 18271806783290031633
20715895 44 17827624860668392837
20739085 24 18048623446302461241
21267235 1 18339088085816005707
21421861 104 17897439497707402715
221490 88 18337399227323641747
2334 1 17906453581789300729
23366157 5 17969790670188274762
23402539 116 18343012328872730805
23559900 14 18269270171452438642
2748010 2 18050849115265500889
335352 9 18266740177642361495
34934 24 18412538842563753134
350125 39 18337391531316837950
4409770 3 16023093002560090294
474 4 17676776456366680372
5104073 3 18410575046330270507
59755656 215 18412267199621998542
7364860 26 18269556048528034606
9709674 26 18411142441564702015

> <PUBCHEM_SHAPE_MULTIPOLES>
411.66
8.65
2.72
0.68
1.13
0.78
-0.02
-2.01
-0.06
-0.42
0.02
-0.37
-0.1
-0.01

> <PUBCHEM_SHAPE_SELFOVERLAP>
938.401

> <PUBCHEM_SHAPE_VOLUME>
211.5

> <PUBCHEM_COORDINATE_TYPE>
2
5
10

$$$$
