129670266
  -OEChem-08272012063D

 35 37  0     0  0  0  0  0  0999 V2000
    1.4121    2.2764   -0.2485 O   0  0  0  0  0  0  0  0  0  0  0  0
    3.3035   -2.0705    0.2502 O   0  0  0  0  0  0  0  0  0  0  0  0
   -1.1469    2.4460   -0.2923 O   0  0  0  0  0  0  0  0  0  0  0  0
   -1.6645   -2.8410    0.2897 O   0  0  0  0  0  0  0  0  0  0  0  0
    4.4050    0.4593    1.0772 O   0  0  0  0  0  0  0  0  0  0  0  0
    4.1465    1.3518   -0.9972 O   0  0  0  0  0  0  0  0  0  0  0  0
   -0.0528    0.3634   -0.0508 C   0  0  0  0  0  0  0  0  0  0  0  0
   -0.1957   -1.0174    0.1006 C   0  0  0  0  0  0  0  0  0  0  0  0
   -2.5855    0.6198   -0.1022 C   0  0  0  0  0  0  0  0  0  0  0  0
   -2.7283   -0.7610    0.0493 C   0  0  0  0  0  0  0  0  0  0  0  0
   -1.2425    1.2325   -0.1582 C   0  0  0  0  0  0  0  0  0  0  0  0
    1.2257    0.9317   -0.1015 C   0  0  0  0  0  0  0  0  0  0  0  0
   -1.5387   -1.6301    0.1563 C   0  0  0  0  0  0  0  0  0  0  0  0
    0.9400   -1.8301    0.2009 C   0  0  0  0  0  0  0  0  0  0  0  0
    2.3547    0.1183   -0.0010 C   0  0  0  0  0  0  0  0  0  0  0  0
    2.2121   -1.2597    0.1498 C   0  0  0  0  0  0  0  0  0  0  0  0
   -3.7211    1.4326   -0.2019 C   0  0  0  0  0  0  0  0  0  0  0  0
   -4.0068   -1.3291    0.1010 C   0  0  0  0  0  0  0  0  0  0  0  0
   -4.9933    0.8623   -0.1497 C   0  0  0  0  0  0  0  0  0  0  0  0
   -5.1359   -0.5157    0.0013 C   0  0  0  0  0  0  0  0  0  0  0  0
    3.6903    0.7043   -0.0529 C   0  0  0  0  0  0  0  0  0  0  0  0
    1.4882    3.0509    0.9451 C   0  0  0  0  0  0  0  0  0  0  0  0
    3.8339   -2.5947   -0.9651 C   0  0  0  0  0  0  0  0  0  0  0  0
    0.8474   -2.9069    0.3201 H   0  0  0  0  0  0  0  0  0  0  0  0
   -3.6387    2.5096   -0.3202 H   0  0  0  0  0  0  0  0  0  0  0  0
   -4.1448   -2.4006    0.2183 H   0  0  0  0  0  0  0  0  0  0  0  0
   -5.8740    1.4933   -0.2270 H   0  0  0  0  0  0  0  0  0  0  0  0
   -6.1275   -0.9572    0.0415 H   0  0  0  0  0  0  0  0  0  0  0  0
    0.7146    2.7642    1.6652 H   0  0  0  0  0  0  0  0  0  0  0  0
    2.4754    2.9389    1.4033 H   0  0  0  0  0  0  0  0  0  0  0  0
    1.3464    4.1024    0.6805 H   0  0  0  0  0  0  0  0  0  0  0  0
    4.7148   -3.1956   -0.7230 H   0  0  0  0  0  0  0  0  0  0  0  0
    4.1367   -1.7871   -1.6389 H   0  0  0  0  0  0  0  0  0  0  0  0
    3.0972   -3.2372   -1.4576 H   0  0  0  0  0  0  0  0  0  0  0  0
    5.3014    0.8557    1.0357 H   0  0  0  0  0  0  0  0  0  0  0  0
  1 12  1  0  0  0  0
  1 22  1  0  0  0  0
  2 16  1  0  0  0  0
  2 23  1  0  0  0  0
  3 11  2  0  0  0  0
  4 13  2  0  0  0  0
  5 21  1  0  0  0  0
  5 35  1  0  0  0  0
  6 21  2  0  0  0  0
  7  8  1  0  0  0  0
  7 11  1  0  0  0  0
  7 12  2  0  0  0  0
  8 13  1  0  0  0  0
  8 14  2  0  0  0  0
  9 10  1  0  0  0  0
  9 11  1  0  0  0  0
  9 17  2  0  0  0  0
 10 13  1  0  0  0  0
 10 18  2  0  0  0  0
 12 15  1  0  0  0  0
 14 16  1  0  0  0  0
 14 24  1  0  0  0  0
 15 16  2  0  0  0  0
 15 21  1  0  0  0  0
 17 19  1  0  0  0  0
 17 25  1  0  0  0  0
 18 20  1  0  0  0  0
 18 26  1  0  0  0  0
 19 20  2  0  0  0  0
 19 27  1  0  0  0  0
 20 28  1  0  0  0  0
 22 29  1  0  0  0  0
 22 30  1  0  0  0  0
 22 31  1  0  0  0  0
 23 32  1  0  0  0  0
 23 33  1  0  0  0  0
 23 34  1  0  0  0  0
M  END
> <PUBCHEM_COMPOUND_CID>
129670266

> <PUBCHEM_CONFORMER_RMSD>
0.6

> <PUBCHEM_CONFORMER_DIVERSEORDER>
2
1

> <PUBCHEM_MMFF94_PARTIAL_CHARGES>
29
1 -0.36
10 0.09
11 0.4
12 0.08
13 0.4
14 -0.15
15 0.09
16 0.08
17 -0.15
18 -0.15
19 -0.15
2 -0.36
20 -0.15
21 0.63
22 0.28
23 0.28
24 0.15
25 0.15
26 0.15
27 0.15
28 0.15
3 -0.57
35 0.5
4 -0.57
5 -0.65
6 -0.57
7 0.09
8 0.09
9 0.09

> <PUBCHEM_EFFECTIVE_ROTOR_COUNT>
3

> <PUBCHEM_PHARMACOPHORE_FEATURES>
10
1 1 acceptor
1 2 acceptor
1 3 acceptor
1 4 acceptor
1 5 acceptor
1 6 acceptor
3 5 6 21 anion
6 7 8 12 14 15 16 rings
6 7 8 9 10 11 13 rings
6 9 10 17 18 19 20 rings

> <PUBCHEM_HEAVY_ATOM_COUNT>
23

> <PUBCHEM_ATOM_DEF_STEREO_COUNT>
0

> <PUBCHEM_ATOM_UDEF_STEREO_COUNT>
0

> <PUBCHEM_BOND_DEF_STEREO_COUNT>
0

> <PUBCHEM_BOND_UDEF_STEREO_COUNT>
0

> <PUBCHEM_ISOTOPIC_ATOM_COUNT>
0

> <PUBCHEM_COMPONENT_COUNT>
1

> <PUBCHEM_CACTVS_TAUTO_COUNT>
1

> <PUBCHEM_CONFORMER_ID>
07BA9C7A00000002

> <PUBCHEM_MMFF94_ENERGY>
97.0397

> <PUBCHEM_FEATURE_SELFOVERLAP>
50.866

> <PUBCHEM_SHAPE_FINGERPRINT>
10616163 171 18266181814872533927
10906281 52 18189346813105694936
10967382 1 18409729581701436915
1100329 8 16968010044058832491
11471102 20 18410007724089610999
11578080 2 16986297542232522819
11680986 33 18409173228907680555
116883 192 18126854798325198958
12011746 2 18410857663488725925
12403259 226 18409443653297535429
12403814 3 17458056080247257853
12553582 1 18411410743718194084
13140716 1 18122336041504994392
138480 1 18411136965217856881
14178342 30 17905594854760589147
14790565 3 18194691363019363249
14866123 147 17262447197461372674
15081414 286 18340778086569087136
15196674 1 18409449159466584399
15442244 35 18338798909799032835
15536298 74 18412544284239987335
1601671 61 18411138065087661112
16945 1 18339358673102894336
17492 89 18341049722203770231
17804303 29 18337113367496181511
1813 80 17167865253050781581
19591789 44 18265615381616070479
200 152 18131063845137714607
20510252 161 18341892940131281065
20645477 70 18340487776860700414
20691752 17 17458631068556139995
21267235 1 18337680719337783699
21279426 13 18265895757344696549
21421861 104 17895462627757162866
221490 88 18408611378640070747
22182313 1 18263629689433473484
2334 1 17689716789139551568
23402539 116 18341322379706619375
23559900 14 18340485573964321062
2748010 2 18338794503616267814
3004659 81 18261115132558972270
335352 9 18265895748802195727
34934 24 18411695525930479286
350125 39 18192152603111956172
3680242 22 18261389984131519691
474 4 17313392291582475180
5104073 3 18410293575711856627
59755656 215 18411985733272126214
7364860 26 18341611555243160904
9709674 26 18410014377026036147
9981440 41 17691114255317743705

> <PUBCHEM_SHAPE_MULTIPOLES>
438.11
9.07
3.02
0.77
3.45
0.18
0
-0.79
0.59
-1.59
-0.12
-0.48
0.08
0.6

> <PUBCHEM_SHAPE_SELFOVERLAP>
980.894

> <PUBCHEM_SHAPE_VOLUME>
230.9

> <PUBCHEM_COORDINATE_TYPE>
2
5
10

$$$$
