160476
  -OEChem-08272011383D

 29 31  0     0  0  0  0  0  0999 V2000
    1.7633    2.2343    0.0272 O   0  0  0  0  0  0  0  0  0  0  0  0
   -0.7867    2.5146    0.0160 O   0  0  0  0  0  0  0  0  0  0  0  0
   -1.5259   -2.7780   -0.0026 O   0  0  0  0  0  0  0  0  0  0  0  0
    3.4694   -2.2166    0.0227 O   0  0  0  0  0  0  0  0  0  0  0  0
    4.4604    0.7469   -1.2195 O   0  0  0  0  0  0  0  0  0  0  0  0
    4.6290    0.8126    1.0462 O   0  0  0  0  0  0  0  0  0  0  0  0
    0.2186    0.3743    0.0144 C   0  0  0  0  0  0  0  0  0  0  0  0
    0.0179   -1.0077    0.0094 C   0  0  0  0  0  0  0  0  0  0  0  0
   -2.3010    0.7404    0.0016 C   0  0  0  0  0  0  0  0  0  0  0  0
   -2.5018   -0.6414   -0.0029 C   0  0  0  0  0  0  0  0  0  0  0  0
   -0.9333    1.2988    0.0111 C   0  0  0  0  0  0  0  0  0  0  0  0
   -1.3497   -1.5659    0.0012 C   0  0  0  0  0  0  0  0  0  0  0  0
    1.5199    0.8906    0.0225 C   0  0  0  0  0  0  0  0  0  0  0  0
    1.1182   -1.8732    0.0122 C   0  0  0  0  0  0  0  0  0  0  0  0
    2.6137    0.0246    0.0255 C   0  0  0  0  0  0  0  0  0  0  0  0
    2.4133   -1.3544    0.0203 C   0  0  0  0  0  0  0  0  0  0  0  0
   -3.4014    1.6060   -0.0024 C   0  0  0  0  0  0  0  0  0  0  0  0
   -3.8031   -1.1579   -0.0114 C   0  0  0  0  0  0  0  0  0  0  0  0
   -4.6965    1.0871   -0.0112 C   0  0  0  0  0  0  0  0  0  0  0  0
   -4.8969   -0.2918   -0.0156 C   0  0  0  0  0  0  0  0  0  0  0  0
    3.9727    0.5565    0.0350 C   0  0  0  0  0  0  0  0  0  0  0  0
    0.9729   -2.9508    0.0083 H   0  0  0  0  0  0  0  0  0  0  0  0
   -3.2739    2.6852    0.0009 H   0  0  0  0  0  0  0  0  0  0  0  0
   -3.9859   -2.2291   -0.0150 H   0  0  0  0  0  0  0  0  0  0  0  0
   -5.5499    1.7591   -0.0145 H   0  0  0  0  0  0  0  0  0  0  0  0
   -5.9062   -0.6932   -0.0223 H   0  0  0  0  0  0  0  0  0  0  0  0
    2.7139    2.4270    0.0287 H   0  0  0  0  0  0  0  0  0  0  0  0
    3.1360   -3.1302    0.0181 H   0  0  0  0  0  0  0  0  0  0  0  0
    5.3738    1.1044   -1.2060 H   0  0  0  0  0  0  0  0  0  0  0  0
  1 13  1  0  0  0  0
  1 27  1  0  0  0  0
  2 11  2  0  0  0  0
  3 12  2  0  0  0  0
  4 16  1  0  0  0  0
  4 28  1  0  0  0  0
  5 21  1  0  0  0  0
  5 29  1  0  0  0  0
  6 21  2  0  0  0  0
  7  8  1  0  0  0  0
  7 11  1  0  0  0  0
  7 13  2  0  0  0  0
  8 12  1  0  0  0  0
  8 14  2  0  0  0  0
  9 10  1  0  0  0  0
  9 11  1  0  0  0  0
  9 17  2  0  0  0  0
 10 12  1  0  0  0  0
 10 18  2  0  0  0  0
 13 15  1  0  0  0  0
 14 16  1  0  0  0  0
 14 22  1  0  0  0  0
 15 16  2  0  0  0  0
 15 21  1  0  0  0  0
 17 19  1  0  0  0  0
 17 23  1  0  0  0  0
 18 20  1  0  0  0  0
 18 24  1  0  0  0  0
 19 20  2  0  0  0  0
 19 25  1  0  0  0  0
 20 26  1  0  0  0  0
M  END
> <PUBCHEM_COMPOUND_CID>
160476

> <PUBCHEM_CONFORMER_RMSD>
0.6

> <PUBCHEM_CONFORMER_DIVERSEORDER>
1

> <PUBCHEM_MMFF94_PARTIAL_CHARGES>
29
1 -0.53
10 0.09
11 0.4
12 0.4
13 0.08
14 -0.15
15 0.09
16 0.08
17 -0.15
18 -0.15
19 -0.15
2 -0.57
20 -0.15
21 0.63
22 0.15
23 0.15
24 0.15
25 0.15
26 0.15
27 0.45
28 0.45
29 0.5
3 -0.57
4 -0.53
5 -0.65
6 -0.57
7 0.09
8 0.09
9 0.09

> <PUBCHEM_EFFECTIVE_ROTOR_COUNT>
1

> <PUBCHEM_PHARMACOPHORE_FEATURES>
10
1 1 donor
1 2 acceptor
1 3 acceptor
1 4 donor
1 5 acceptor
1 6 acceptor
3 5 6 21 anion
6 7 8 13 14 15 16 rings
6 7 8 9 10 11 12 rings
6 9 10 17 18 19 20 rings

> <PUBCHEM_HEAVY_ATOM_COUNT>
21

> <PUBCHEM_ATOM_DEF_STEREO_COUNT>
0

> <PUBCHEM_ATOM_UDEF_STEREO_COUNT>
0

> <PUBCHEM_BOND_DEF_STEREO_COUNT>
0

> <PUBCHEM_BOND_UDEF_STEREO_COUNT>
0

> <PUBCHEM_ISOTOPIC_ATOM_COUNT>
0

> <PUBCHEM_COMPONENT_COUNT>
1

> <PUBCHEM_CACTVS_TAUTO_COUNT>
17

> <PUBCHEM_CONFORMER_ID>
000272DC00000001

> <PUBCHEM_MMFF94_ENERGY>
70.8741

> <PUBCHEM_FEATURE_SELFOVERLAP>
50.846

> <PUBCHEM_SHAPE_FINGERPRINT>
10411042 1 16753531588538091367
10498660 4 18410012100434588293
10616163 171 18339364187815048447
10967382 1 18410573989451699691
11132069 177 18410854360627194049
11471102 20 18410570661073701927
11578080 2 16915086572158557907
12011746 2 18412547608544505893
12236239 1 17821445794493407380
12403814 3 17530960289537914397
12788726 201 17917158182184783793
12954195 1 17986414208369326972
13140716 1 18194677296710812112
13221675 6 18410291410673694703
138480 1 17834113043970550899
13862211 1 18410849984124214547
14790565 3 18196380212821624569
15196674 1 18410855421853368211
15375358 24 18342457053688302526
15442244 35 18266740190601174546
15536298 74 18341894056532542870
1601671 61 18409167723102504900
16945 1 18410855490256275378
1813 80 17240204313380591956
19591789 44 18266459797866675031
200 152 18059849572191753029
20510252 161 18271806774705287345
21267235 1 18410865390530659887
21421861 104 17895745180828680594
221490 88 18336272318273337115
2334 1 17834396000847407672
23402539 116 18343011220834439479
23402655 69 18342735187713187541
23463225 33 18409730642948736181
23557571 272 18271820067513056350
23559900 14 18341894052807359270
2748010 2 18265896856703258783
3004659 81 18261675870604287998
335352 9 18266740169110468655
34934 24 18412257367745388986
350125 39 18265333915740847942
3545911 37 18411702084092118306
4409770 3 15950470263930169030
474 4 17458635561529840340
5104073 3 18338798918636979083
57005193 9 18409441505470853039
59755656 215 18340209601341948270
69090 78 18412259532524989671
9709674 26 18411705404218434919

> <PUBCHEM_SHAPE_MULTIPOLES>
396.95
8.9
2.45
0.68
0.04
0.42
-0.02
-1.33
-0.06
-0.01
0.02
-0.39
-0.07
-0.01

> <PUBCHEM_SHAPE_SELFOVERLAP>
902.584

> <PUBCHEM_SHAPE_VOLUME>
205.1

> <PUBCHEM_COORDINATE_TYPE>
2
5
10

$$$$
