196978
  -OEChem-08272011393D

 26 28  0     0  0  0  0  0  0999 V2000
    2.1340    2.6899   -0.0007 O   0  0  0  0  0  0  0  0  0  0  0  0
   -0.4485    2.5933    0.0021 O   0  0  0  0  0  0  0  0  0  0  0  0
   -0.4004   -2.7506    0.0013 O   0  0  0  0  0  0  0  0  0  0  0  0
    4.4676   -1.4352   -0.0024 O   0  0  0  0  0  0  0  0  0  0  0  0
    0.8593    0.6250    0.0005 C   0  0  0  0  0  0  0  0  0  0  0  0
    0.8650   -0.7715    0.0005 C   0  0  0  0  0  0  0  0  0  0  0  0
   -1.6868    0.6147   -0.0002 C   0  0  0  0  0  0  0  0  0  0  0  0
   -1.6811   -0.7817    0.0004 C   0  0  0  0  0  0  0  0  0  0  0  0
   -0.4167    1.3691    0.0004 C   0  0  0  0  0  0  0  0  0  0  0  0
   -0.4050   -1.5258    0.0011 C   0  0  0  0  0  0  0  0  0  0  0  0
    2.0700    1.3281    0.0003 C   0  0  0  0  0  0  0  0  0  0  0  0
    2.0812   -1.4648    0.0001 C   0  0  0  0  0  0  0  0  0  0  0  0
   -2.9031    1.3080   -0.0010 C   0  0  0  0  0  0  0  0  0  0  0  0
   -2.8918   -1.4849    0.0002 C   0  0  0  0  0  0  0  0  0  0  0  0
    3.2854   -0.7602   -0.0001 C   0  0  0  0  0  0  0  0  0  0  0  0
    3.2798    0.6332    0.0001 C   0  0  0  0  0  0  0  0  0  0  0  0
   -4.1073    0.6033   -0.0016 C   0  0  0  0  0  0  0  0  0  0  0  0
   -4.1016   -0.7901   -0.0009 C   0  0  0  0  0  0  0  0  0  0  0  0
    2.0986   -2.5519   -0.0003 H   0  0  0  0  0  0  0  0  0  0  0  0
   -2.9362    2.3942   -0.0015 H   0  0  0  0  0  0  0  0  0  0  0  0
   -2.9143   -2.5714    0.0006 H   0  0  0  0  0  0  0  0  0  0  0  0
    4.2262    1.1692   -0.0006 H   0  0  0  0  0  0  0  0  0  0  0  0
   -5.0507    1.1418   -0.0024 H   0  0  0  0  0  0  0  0  0  0  0  0
   -5.0405   -1.3363   -0.0013 H   0  0  0  0  0  0  0  0  0  0  0  0
    3.0642    2.9731   -0.0010 H   0  0  0  0  0  0  0  0  0  0  0  0
    4.2861   -2.3907   -0.0028 H   0  0  0  0  0  0  0  0  0  0  0  0
  1 11  1  0  0  0  0
  1 25  1  0  0  0  0
  2  9  2  0  0  0  0
  3 10  2  0  0  0  0
  4 15  1  0  0  0  0
  4 26  1  0  0  0  0
  5  6  2  0  0  0  0
  5  9  1  0  0  0  0
  5 11  1  0  0  0  0
  6 10  1  0  0  0  0
  6 12  1  0  0  0  0
  7  8  1  0  0  0  0
  7  9  1  0  0  0  0
  7 13  2  0  0  0  0
  8 10  1  0  0  0  0
  8 14  2  0  0  0  0
 11 16  2  0  0  0  0
 12 15  2  0  0  0  0
 12 19  1  0  0  0  0
 13 17  1  0  0  0  0
 13 20  1  0  0  0  0
 14 18  1  0  0  0  0
 14 21  1  0  0  0  0
 15 16  1  0  0  0  0
 16 22  1  0  0  0  0
 17 18  2  0  0  0  0
 17 23  1  0  0  0  0
 18 24  1  0  0  0  0
M  END
> <PUBCHEM_COMPOUND_CID>
196978

> <PUBCHEM_CONFORMER_RMSD>
0.4

> <PUBCHEM_CONFORMER_DIVERSEORDER>
1

> <PUBCHEM_MMFF94_PARTIAL_CHARGES>
26
1 -0.53
10 0.4
11 0.08
12 -0.15
13 -0.15
14 -0.15
15 0.08
16 -0.15
17 -0.15
18 -0.15
19 0.15
2 -0.57
20 0.15
21 0.15
22 0.15
23 0.15
24 0.15
25 0.45
26 0.45
3 -0.57
4 -0.53
5 0.09
6 0.09
7 0.09
8 0.09
9 0.4

> <PUBCHEM_EFFECTIVE_ROTOR_COUNT>
0

> <PUBCHEM_PHARMACOPHORE_FEATURES>
7
1 1 donor
1 2 acceptor
1 3 acceptor
1 4 donor
6 5 6 11 12 15 16 rings
6 5 6 7 8 9 10 rings
6 7 8 13 14 17 18 rings

> <PUBCHEM_HEAVY_ATOM_COUNT>
18

> <PUBCHEM_ATOM_DEF_STEREO_COUNT>
0

> <PUBCHEM_ATOM_UDEF_STEREO_COUNT>
0

> <PUBCHEM_BOND_DEF_STEREO_COUNT>
0

> <PUBCHEM_BOND_UDEF_STEREO_COUNT>
0

> <PUBCHEM_ISOTOPIC_ATOM_COUNT>
0

> <PUBCHEM_COMPONENT_COUNT>
1

> <PUBCHEM_CACTVS_TAUTO_COUNT>
12

> <PUBCHEM_CONFORMER_ID>
0003017200000001

> <PUBCHEM_MMFF94_ENERGY>
54.2308

> <PUBCHEM_FEATURE_SELFOVERLAP>
35.562

> <PUBCHEM_SHAPE_FINGERPRINT>
10062212 137 18412537700419236351
10411042 1 15744725199160701255
10608611 8 18409445920845101797
10616163 171 18123192569573870998
10967382 1 18338516455538084611
11132069 177 18413100654334945475
11471102 20 18410289220240341420
11680986 33 18264211494098002386
12032990 46 18409733971353341683
12403259 226 18409442587850409285
13140716 1 18411143532501810553
13221675 6 18410009918512002522
13862211 1 18410568449028881506
14115302 16 17968389995469215950
14790565 3 18123204419500092400
15042514 8 17905040349272359154
15196674 1 18410573993762491237
15442244 35 18411701001760346744
15536298 74 18342738546071716192
16945 1 18194402191143928481
17804303 29 18410579465582481494
18186145 218 18410854352237667645
193761 8 17906453586237359235
19591789 44 18410012169333679299
200 152 18059848472527092575
20028762 73 18201999992992852135
20510252 161 18272368637836842960
21267235 1 18410865347301554995
21501502 16 18340205322594016127
221490 88 18335990877403131250
2334 1 18338799021694977285
23366157 5 18041276694684667036
23402539 116 18343292643934283254
23463225 33 18409448093845105621
23559900 14 18342454842502773168
2748010 2 18410009961714740245
335352 9 18338797788881075741
34934 24 18339919445798105352
350125 39 18410016524472689417
5104073 3 18410856572545817433
69090 78 18342171193734826367
7364860 26 18341894155802269304
84936 31 16056046705615125366
8809292 202 18333455339170297139
9709674 26 18338519762668599523
9981440 41 17543908361942632376

> <PUBCHEM_SHAPE_MULTIPOLES>
346.95
6.87
2.54
0.6
0.42
0.42
0
-1
0
-0.56
0
0.03
-0.01
0

> <PUBCHEM_SHAPE_SELFOVERLAP>
789.642

> <PUBCHEM_SHAPE_VOLUME>
179

> <PUBCHEM_COORDINATE_TYPE>
2
5
10

$$$$
