21582934
  -OEChem-08272012383D

 84 88  0     1  0  0  0  0  0999 V2000
   -3.5374   -3.1494   -0.6995 O   0  0  0  0  0  0  0  0  0  0  0  0
    0.7426    3.2333    0.2237 O   0  0  0  0  0  0  0  0  0  0  0  0
    7.1674   -0.4382   -0.4296 O   0  0  0  0  0  0  0  0  0  0  0  0
    5.7343   -2.8434   -0.4509 O   0  0  0  0  0  0  0  0  0  0  0  0
   -1.5401   -0.7269    0.2593 C   0  0  1  0  0  0  0  0  0  0  0  0
   -0.9370    0.6649   -0.2558 C   0  0  2  0  0  0  0  0  0  0  0  0
   -3.0411   -0.8100   -0.1498 C   0  0  2  0  0  0  0  0  0  0  0  0
   -3.9490    0.3563    0.3244 C   0  0  2  0  0  0  0  0  0  0  0  0
    0.5638    0.7861    0.2883 C   0  0  1  0  0  0  0  0  0  0  0  0
   -1.8588    1.8383    0.2192 C   0  0  0  0  0  0  0  0  0  0  0  0
   -5.2571   -0.0712   -0.4043 C   0  0  1  0  0  0  0  0  0  0  0  0
   -3.3485    1.6815   -0.1653 C   0  0  0  0  0  0  0  0  0  0  0  0
   -3.8901   -2.0582    0.1351 C   0  0  1  0  0  0  0  0  0  0  0  0
    2.9001   -0.4626    0.4161 C   0  0  2  0  0  0  0  0  0  0  0  0
   -0.7266   -1.8580   -0.4190 C   0  0  0  0  0  0  0  0  0  0  0  0
    1.3776   -0.5161    0.0732 C   0  0  0  0  0  0  0  0  0  0  0  0
   -5.3369   -1.5973   -0.1513 C   0  0  0  0  0  0  0  0  0  0  0  0
    3.5342    0.7844   -0.2937 C   0  0  1  0  0  0  0  0  0  0  0  0
    1.3257    2.0233   -0.2566 C   0  0  2  0  0  0  0  0  0  0  0  0
   -1.3724   -0.9138    1.7977 C   0  0  0  0  0  0  0  0  0  0  0  0
   -0.9011    0.7513   -1.8217 C   0  0  0  0  0  0  0  0  0  0  0  0
    2.8033    2.0679    0.1305 C   0  0  0  0  0  0  0  0  0  0  0  0
    0.7614   -1.6626   -0.2955 C   0  0  0  0  0  0  0  0  0  0  0  0
   -4.2081    0.4554    1.8465 C   0  0  0  0  0  0  0  0  0  0  0  0
    5.1089    0.9112   -0.2481 C   0  0  0  0  0  0  0  0  0  0  0  0
   -6.5400    0.6569   -0.0283 C   0  0  0  0  0  0  0  0  0  0  0  0
    3.6694   -1.7265   -0.0575 C   0  0  0  0  0  0  0  0  0  0  0  0
    5.7554   -0.4451   -0.6578 C   0  0  2  0  0  0  0  0  0  0  0  0
    2.9624   -0.4283    1.9642 C   0  0  0  0  0  0  0  0  0  0  0  0
    5.1841   -1.6411    0.0972 C   0  0  2  0  0  0  0  0  0  0  0  0
    5.5520    1.2104    1.2139 C   0  0  0  0  0  0  0  0  0  0  0  0
    5.6668    2.0721   -1.1003 C   0  0  0  0  0  0  0  0  0  0  0  0
   -7.7657   -0.1745   -0.4072 C   0  0  0  0  0  0  0  0  0  0  0  0
   -6.5997    2.0299   -0.6976 C   0  0  0  0  0  0  0  0  0  0  0  0
   -3.0175   -0.7766   -1.2492 H   0  0  0  0  0  0  0  0  0  0  0  0
    0.4904    0.9341    1.3748 H   0  0  0  0  0  0  0  0  0  0  0  0
   -1.5285    2.7840   -0.2230 H   0  0  0  0  0  0  0  0  0  0  0  0
   -1.7700    1.9706    1.3027 H   0  0  0  0  0  0  0  0  0  0  0  0
   -5.1065    0.0506   -1.4885 H   0  0  0  0  0  0  0  0  0  0  0  0
   -3.8825    2.5342    0.2657 H   0  0  0  0  0  0  0  0  0  0  0  0
   -3.4537    1.7714   -1.2528 H   0  0  0  0  0  0  0  0  0  0  0  0
   -3.8024   -2.3910    1.1730 H   0  0  0  0  0  0  0  0  0  0  0  0
   -0.9783   -1.9584   -1.4813 H   0  0  0  0  0  0  0  0  0  0  0  0
   -0.9804   -2.8188    0.0472 H   0  0  0  0  0  0  0  0  0  0  0  0
   -5.9367   -1.8310    0.7355 H   0  0  0  0  0  0  0  0  0  0  0  0
   -5.7766   -2.1219   -1.0067 H   0  0  0  0  0  0  0  0  0  0  0  0
    3.3138    0.6579   -1.3673 H   0  0  0  0  0  0  0  0  0  0  0  0
    1.2766    2.0483   -1.3499 H   0  0  0  0  0  0  0  0  0  0  0  0
   -1.4518    0.0233    2.3492 H   0  0  0  0  0  0  0  0  0  0  0  0
   -2.0992   -1.6178    2.2103 H   0  0  0  0  0  0  0  0  0  0  0  0
   -0.3922   -1.3196    2.0698 H   0  0  0  0  0  0  0  0  0  0  0  0
   -0.1277    0.1148   -2.2617 H   0  0  0  0  0  0  0  0  0  0  0  0
   -1.8467    0.4766   -2.2928 H   0  0  0  0  0  0  0  0  0  0  0  0
   -0.6971    1.7751   -2.1553 H   0  0  0  0  0  0  0  0  0  0  0  0
    2.8974    2.2756    1.2008 H   0  0  0  0  0  0  0  0  0  0  0  0
    3.2404    2.9428   -0.3627 H   0  0  0  0  0  0  0  0  0  0  0  0
    1.3256   -2.5764   -0.4474 H   0  0  0  0  0  0  0  0  0  0  0  0
   -4.6238   -0.4633    2.2697 H   0  0  0  0  0  0  0  0  0  0  0  0
   -3.3154    0.7025    2.4168 H   0  0  0  0  0  0  0  0  0  0  0  0
   -4.9018    1.2707    2.0782 H   0  0  0  0  0  0  0  0  0  0  0  0
   -6.6216    0.8067    1.0517 H   0  0  0  0  0  0  0  0  0  0  0  0
    3.4472   -1.9247   -1.1164 H   0  0  0  0  0  0  0  0  0  0  0  0
    3.3226   -2.6159    0.4867 H   0  0  0  0  0  0  0  0  0  0  0  0
    5.6163   -0.6074   -1.7349 H   0  0  0  0  0  0  0  0  0  0  0  0
    3.9231   -0.7339    2.3767 H   0  0  0  0  0  0  0  0  0  0  0  0
    2.7086    0.5462    2.3880 H   0  0  0  0  0  0  0  0  0  0  0  0
    2.2458   -1.1437    2.3908 H   0  0  0  0  0  0  0  0  0  0  0  0
    5.4917   -1.6353    1.1460 H   0  0  0  0  0  0  0  0  0  0  0  0
   -4.1590   -3.8731   -0.5113 H   0  0  0  0  0  0  0  0  0  0  0  0
    6.6131    1.4933    1.2350 H   0  0  0  0  0  0  0  0  0  0  0  0
    5.0149    2.0606    1.6437 H   0  0  0  0  0  0  0  0  0  0  0  0
    5.4736    0.3740    1.9015 H   0  0  0  0  0  0  0  0  0  0  0  0
    5.3400    1.9728   -2.1410 H   0  0  0  0  0  0  0  0  0  0  0  0
    5.3366    3.0489   -0.7342 H   0  0  0  0  0  0  0  0  0  0  0  0
    6.7614    2.0956   -1.0986 H   0  0  0  0  0  0  0  0  0  0  0  0
    1.1992    3.9753   -0.2082 H   0  0  0  0  0  0  0  0  0  0  0  0
   -7.8773   -1.0695    0.2114 H   0  0  0  0  0  0  0  0  0  0  0  0
   -8.6828    0.4088   -0.2634 H   0  0  0  0  0  0  0  0  0  0  0  0
   -7.7346   -0.4770   -1.4597 H   0  0  0  0  0  0  0  0  0  0  0  0
   -7.5868    2.4845   -0.5551 H   0  0  0  0  0  0  0  0  0  0  0  0
   -6.4229    1.9631   -1.7763 H   0  0  0  0  0  0  0  0  0  0  0  0
   -5.8797    2.7273   -0.2691 H   0  0  0  0  0  0  0  0  0  0  0  0
    7.5744    0.1322   -1.1026 H   0  0  0  0  0  0  0  0  0  0  0  0
    5.3802   -3.5896    0.0625 H   0  0  0  0  0  0  0  0  0  0  0  0
  1 13  1  0  0  0  0
  1 69  1  0  0  0  0
  2 19  1  0  0  0  0
  2 76  1  0  0  0  0
  3 28  1  0  0  0  0
  3 83  1  0  0  0  0
  4 30  1  0  0  0  0
  4 84  1  0  0  0  0
  5  6  1  0  0  0  0
  5  7  1  0  0  0  0
  5 15  1  0  0  0  0
  5 20  1  0  0  0  0
  6  9  1  0  0  0  0
  6 10  1  0  0  0  0
  6 21  1  0  0  0  0
  7  8  1  0  0  0  0
  7 13  1  0  0  0  0
  7 35  1  0  0  0  0
  8 11  1  0  0  0  0
  8 12  1  0  0  0  0
  8 24  1  0  0  0  0
  9 16  1  0  0  0  0
  9 19  1  0  0  0  0
  9 36  1  0  0  0  0
 10 12  1  0  0  0  0
 10 37  1  0  0  0  0
 10 38  1  0  0  0  0
 11 17  1  0  0  0  0
 11 26  1  0  0  0  0
 11 39  1  0  0  0  0
 12 40  1  0  0  0  0
 12 41  1  0  0  0  0
 13 17  1  0  0  0  0
 13 42  1  0  0  0  0
 14 16  1  0  0  0  0
 14 18  1  0  0  0  0
 14 27  1  0  0  0  0
 14 29  1  0  0  0  0
 15 23  1  0  0  0  0
 15 43  1  0  0  0  0
 15 44  1  0  0  0  0
 16 23  2  0  0  0  0
 17 45  1  0  0  0  0
 17 46  1  0  0  0  0
 18 22  1  0  0  0  0
 18 25  1  0  0  0  0
 18 47  1  0  0  0  0
 19 22  1  0  0  0  0
 19 48  1  0  0  0  0
 20 49  1  0  0  0  0
 20 50  1  0  0  0  0
 20 51  1  0  0  0  0
 21 52  1  0  0  0  0
 21 53  1  0  0  0  0
 21 54  1  0  0  0  0
 22 55  1  0  0  0  0
 22 56  1  0  0  0  0
 23 57  1  0  0  0  0
 24 58  1  0  0  0  0
 24 59  1  0  0  0  0
 24 60  1  0  0  0  0
 25 28  1  0  0  0  0
 25 31  1  0  0  0  0
 25 32  1  0  0  0  0
 26 33  1  0  0  0  0
 26 34  1  0  0  0  0
 26 61  1  0  0  0  0
 27 30  1  0  0  0  0
 27 62  1  0  0  0  0
 27 63  1  0  0  0  0
 28 30  1  0  0  0  0
 28 64  1  0  0  0  0
 29 65  1  0  0  0  0
 29 66  1  0  0  0  0
 29 67  1  0  0  0  0
 30 68  1  0  0  0  0
 31 70  1  0  0  0  0
 31 71  1  0  0  0  0
 31 72  1  0  0  0  0
 32 73  1  0  0  0  0
 32 74  1  0  0  0  0
 32 75  1  0  0  0  0
 33 77  1  0  0  0  0
 33 78  1  0  0  0  0
 33 79  1  0  0  0  0
 34 80  1  0  0  0  0
 34 81  1  0  0  0  0
 34 82  1  0  0  0  0
M  END
> <PUBCHEM_COMPOUND_CID>
21582934

> <PUBCHEM_CONFORMER_RMSD>
0.8

> <PUBCHEM_CONFORMER_DIVERSEORDER>
1

> <PUBCHEM_MMFF94_PARTIAL_CHARGES>
18
1 -0.68
13 0.28
14 0.14
15 0.14
16 -0.28
19 0.28
2 -0.68
23 -0.29
28 0.28
3 -0.68
30 0.28
4 -0.68
57 0.15
69 0.4
76 0.4
83 0.4
84 0.4
9 0.14

> <PUBCHEM_EFFECTIVE_ROTOR_COUNT>
3.4

> <PUBCHEM_PHARMACOPHORE_FEATURES>
15
1 1 acceptor
1 1 donor
1 2 acceptor
1 2 donor
1 3 acceptor
1 3 donor
1 4 acceptor
1 4 donor
3 25 31 32 hydrophobe
3 26 33 34 hydrophobe
5 7 8 11 13 17 rings
6 14 18 25 27 28 30 rings
6 5 6 7 8 10 12 rings
6 5 6 9 15 16 23 rings
6 9 14 16 18 19 22 rings

> <PUBCHEM_HEAVY_ATOM_COUNT>
34

> <PUBCHEM_ATOM_DEF_STEREO_COUNT>
12

> <PUBCHEM_ATOM_UDEF_STEREO_COUNT>
0

> <PUBCHEM_BOND_DEF_STEREO_COUNT>
0

> <PUBCHEM_BOND_UDEF_STEREO_COUNT>
0

> <PUBCHEM_ISOTOPIC_ATOM_COUNT>
0

> <PUBCHEM_COMPONENT_COUNT>
1

> <PUBCHEM_CACTVS_TAUTO_COUNT>
1

> <PUBCHEM_CONFORMER_ID>
0149545600000001

> <PUBCHEM_MMFF94_ENERGY>
169.9972

> <PUBCHEM_FEATURE_SELFOVERLAP>
76.226

> <PUBCHEM_SHAPE_FINGERPRINT>
10906281 52 18335717034910216737
11135609 187 18046916145785348956
11315181 36 17846501448060249841
11524674 6 16845290553654427487
11578080 2 16734933551037752415
11719270 70 18202281381468329822
12011746 2 18408042909447809221
12107698 1 18261391101524727002
12166972 35 18060418027861108529
12236239 1 18187364354553241591
12516196 113 18343017796034107377
12788726 201 18335137540384660353
13402501 40 18408322176763876580
13533116 47 18343301453296887298
13782708 43 17603865568776860338
13811026 1 18411414020667237131
14341114 176 18411421708843313297
14790565 3 18410016563185099156
15131766 46 16300373815199900516
15183329 4 18412268324328144018
15196674 1 18410293618297414862
15361156 5 18041570233575360660
15849732 13 18131911567822229364
15927050 60 17694782226645989604
17349148 13 17489314108813074891
17492 89 18194682807465615075
1813 80 17385443232884990364
18681886 176 18343296002593063745
19319366 153 17894627063613925522
20511986 3 18343010116669394907
21033648 29 17703210919190466434
21267235 1 18410862057213759217
21279426 13 18335980887588580901
21792934 111 18339629054516884848
221357 26 18408603639240800580
23522609 53 18126597628252626456
23559900 14 18341044220402755521
23569917 315 18272938220059397063
23569943 247 18123192303154946290
23576562 1 18113893923388318389
249057 3 18412261753376399383
3004659 81 18259985968682556964
335352 9 18411135836352822429
34797466 226 16056883559008602088
350125 39 18409448102688702701
3633792 109 18341327791882467805
4017518 198 17275393101514138790
404807 14 17337328371767329383
4073 2 18041284377869528602
4144715 1 18335712671319039379
4325135 7 18334014995363506092
5104073 3 18342740719394006882
59755656 215 18412263908917128191
59755656 520 17167858695274361883
6086070 43 17418088862415660851
6328613 192 18334580156961775861

> <PUBCHEM_SHAPE_MULTIPOLES>
676.23
17.51
2.75
1.2
3.36
0.13
0.39
0.03
-2.36
-0.64
-0.42
-0.12
-0.05
0.04

> <PUBCHEM_SHAPE_SELFOVERLAP>
1435.866

> <PUBCHEM_SHAPE_VOLUME>
375.1

> <PUBCHEM_COORDINATE_TYPE>
2
5
10

$$$$
