21582929
  -OEChem-08272012013D

 83 87  0     1  0  0  0  0  0999 V2000
    3.4938    2.8759   -0.8982 O   0  0  0  0  0  0  0  0  0  0  0  0
   -0.9932   -3.1311    0.1623 O   0  0  0  0  0  0  0  0  0  0  0  0
   -7.0038    0.9767   -1.2115 O   0  0  0  0  0  0  0  0  0  0  0  0
    1.3230    0.7790    0.0502 C   0  0  2  0  0  0  0  0  0  0  0  0
    0.7412   -0.6606    0.4747 C   0  0  1  0  0  0  0  0  0  0  0  0
    2.8602    0.7858    0.2988 C   0  0  1  0  0  0  0  0  0  0  0  0
    3.6747   -0.3089   -0.4417 C   0  0  1  0  0  0  0  0  0  0  0  0
   -0.8168   -0.6775    0.1243 C   0  0  2  0  0  0  0  0  0  0  0  0
    5.0690   -0.0272    0.1904 C   0  0  2  0  0  0  0  0  0  0  0  0
    1.5609   -1.7723   -0.2687 C   0  0  0  0  0  0  0  0  0  0  0  0
    3.0933   -1.6857   -0.0792 C   0  0  0  0  0  0  0  0  0  0  0  0
    3.7340    2.0525    0.2253 C   0  0  1  0  0  0  0  0  0  0  0  0
    0.6452    1.8480    0.9415 C   0  0  0  0  0  0  0  0  0  0  0  0
   -1.5432    0.5906    0.6382 C   0  0  0  0  0  0  0  0  0  0  0  0
   -3.1024    0.5636    0.6922 C   0  0  2  0  0  0  0  0  0  0  0  0
    5.1797    1.5140    0.1577 C   0  0  0  0  0  0  0  0  0  0  0  0
   -3.6185   -0.5529   -0.2807 C   0  0  1  0  0  0  0  0  0  0  0  0
   -1.6026   -1.9223    0.6009 C   0  0  1  0  0  0  0  0  0  0  0  0
    0.9579    1.1198   -1.4281 C   0  0  0  0  0  0  0  0  0  0  0  0
    0.8909   -0.9544    2.0055 C   0  0  0  0  0  0  0  0  0  0  0  0
   -3.0525   -1.9398    0.0893 C   0  0  0  0  0  0  0  0  0  0  0  0
   -0.8463    1.6821    1.0279 C   0  0  0  0  0  0  0  0  0  0  0  0
    3.7550   -0.1863   -1.9794 C   0  0  0  0  0  0  0  0  0  0  0  0
   -5.1630   -0.5652   -0.6144 C   0  0  0  0  0  0  0  0  0  0  0  0
    6.2728   -0.7151   -0.4391 C   0  0  0  0  0  0  0  0  0  0  0  0
   -3.6800    1.9319    0.2244 C   0  0  0  0  0  0  0  0  0  0  0  0
   -5.5919    0.8702   -1.0347 C   0  0  2  0  0  0  0  0  0  0  0  0
   -3.5005    0.3334    2.1695 C   0  0  0  0  0  0  0  0  0  0  0  0
   -5.1832    1.9307   -0.0212 C   0  0  0  0  0  0  0  0  0  0  0  0
   -5.4142   -1.5120   -1.8211 C   0  0  0  0  0  0  0  0  0  0  0  0
   -6.0600   -1.0930    0.5265 C   0  0  0  0  0  0  0  0  0  0  0  0
    6.3568   -2.1748    0.0068 C   0  0  0  0  0  0  0  0  0  0  0  0
    7.5637    0.0247   -0.0885 C   0  0  0  0  0  0  0  0  0  0  0  0
    2.9523    0.5381    1.3668 H   0  0  0  0  0  0  0  0  0  0  0  0
   -0.8878   -0.6762   -0.9720 H   0  0  0  0  0  0  0  0  0  0  0  0
    5.0362   -0.3107    1.2541 H   0  0  0  0  0  0  0  0  0  0  0  0
    1.3239   -1.7656   -1.3378 H   0  0  0  0  0  0  0  0  0  0  0  0
    1.2736   -2.7649    0.0906 H   0  0  0  0  0  0  0  0  0  0  0  0
    3.3406   -1.9434    0.9576 H   0  0  0  0  0  0  0  0  0  0  0  0
    3.5367   -2.4698   -0.7014 H   0  0  0  0  0  0  0  0  0  0  0  0
    3.5891    2.6667    1.1213 H   0  0  0  0  0  0  0  0  0  0  0  0
    0.8605    2.8479    0.5430 H   0  0  0  0  0  0  0  0  0  0  0  0
    1.0516    1.8338    1.9601 H   0  0  0  0  0  0  0  0  0  0  0  0
    5.7587    1.8763    1.0148 H   0  0  0  0  0  0  0  0  0  0  0  0
    5.6653    1.8732   -0.7567 H   0  0  0  0  0  0  0  0  0  0  0  0
   -3.1502   -0.3094   -1.2501 H   0  0  0  0  0  0  0  0  0  0  0  0
   -1.6148   -1.9537    1.6960 H   0  0  0  0  0  0  0  0  0  0  0  0
    0.9273    0.2423   -2.0746 H   0  0  0  0  0  0  0  0  0  0  0  0
   -0.0352    1.5740   -1.5192 H   0  0  0  0  0  0  0  0  0  0  0  0
    1.6441    1.8403   -1.8743 H   0  0  0  0  0  0  0  0  0  0  0  0
    0.2660   -0.3048    2.6249 H   0  0  0  0  0  0  0  0  0  0  0  0
    0.5985   -1.9856    2.2347 H   0  0  0  0  0  0  0  0  0  0  0  0
    1.9151   -0.8539    2.3696 H   0  0  0  0  0  0  0  0  0  0  0  0
   -3.6627   -2.4282    0.8559 H   0  0  0  0  0  0  0  0  0  0  0  0
   -3.1139   -2.5945   -0.7891 H   0  0  0  0  0  0  0  0  0  0  0  0
   -1.3652    2.5453    1.4336 H   0  0  0  0  0  0  0  0  0  0  0  0
    4.1523    0.7770   -2.3101 H   0  0  0  0  0  0  0  0  0  0  0  0
    4.3894   -0.9698   -2.4074 H   0  0  0  0  0  0  0  0  0  0  0  0
    2.7958   -0.3322   -2.4710 H   0  0  0  0  0  0  0  0  0  0  0  0
    6.2259   -0.7003   -1.5313 H   0  0  0  0  0  0  0  0  0  0  0  0
   -3.1827    2.2398   -0.7060 H   0  0  0  0  0  0  0  0  0  0  0  0
   -3.4709    2.7166    0.9619 H   0  0  0  0  0  0  0  0  0  0  0  0
   -5.1311    1.1116   -2.0017 H   0  0  0  0  0  0  0  0  0  0  0  0
   -4.5564    0.5304    2.3571 H   0  0  0  0  0  0  0  0  0  0  0  0
   -3.2933   -0.6840    2.5110 H   0  0  0  0  0  0  0  0  0  0  0  0
   -2.9540    1.0100    2.8382 H   0  0  0  0  0  0  0  0  0  0  0  0
   -5.7364    1.8060    0.9164 H   0  0  0  0  0  0  0  0  0  0  0  0
   -5.4834    2.9199   -0.3913 H   0  0  0  0  0  0  0  0  0  0  0  0
    4.1103    3.6263   -0.8513 H   0  0  0  0  0  0  0  0  0  0  0  0
   -5.2250   -2.5591   -1.5634 H   0  0  0  0  0  0  0  0  0  0  0  0
   -4.7733   -1.2511   -2.6707 H   0  0  0  0  0  0  0  0  0  0  0  0
   -6.4533   -1.4510   -2.1646 H   0  0  0  0  0  0  0  0  0  0  0  0
   -6.0744   -0.4380    1.3965 H   0  0  0  0  0  0  0  0  0  0  0  0
   -5.7601   -2.0903    0.8601 H   0  0  0  0  0  0  0  0  0  0  0  0
   -7.1017   -1.1832    0.1948 H   0  0  0  0  0  0  0  0  0  0  0  0
    6.3018   -2.2700    1.0964 H   0  0  0  0  0  0  0  0  0  0  0  0
    5.5706   -2.7859   -0.4367 H   0  0  0  0  0  0  0  0  0  0  0  0
    7.3058   -2.6203   -0.3131 H   0  0  0  0  0  0  0  0  0  0  0  0
    7.6664    0.1604    0.9938 H   0  0  0  0  0  0  0  0  0  0  0  0
    7.6354    1.0025   -0.5731 H   0  0  0  0  0  0  0  0  0  0  0  0
    8.4358   -0.5461   -0.4285 H   0  0  0  0  0  0  0  0  0  0  0  0
   -1.5022   -3.8708    0.5360 H   0  0  0  0  0  0  0  0  0  0  0  0
   -7.1949    1.8732   -1.5358 H   0  0  0  0  0  0  0  0  0  0  0  0
  1 12  1  0  0  0  0
  1 69  1  0  0  0  0
  2 18  1  0  0  0  0
  2 82  1  0  0  0  0
  3 27  1  0  0  0  0
  3 83  1  0  0  0  0
  4  5  1  0  0  0  0
  4  6  1  0  0  0  0
  4 13  1  0  0  0  0
  4 19  1  0  0  0  0
  5  8  1  0  0  0  0
  5 10  1  0  0  0  0
  5 20  1  0  0  0  0
  6  7  1  0  0  0  0
  6 12  1  0  0  0  0
  6 34  1  0  0  0  0
  7  9  1  0  0  0  0
  7 11  1  0  0  0  0
  7 23  1  0  0  0  0
  8 14  1  0  0  0  0
  8 18  1  0  0  0  0
  8 35  1  0  0  0  0
  9 16  1  0  0  0  0
  9 25  1  0  0  0  0
  9 36  1  0  0  0  0
 10 11  1  0  0  0  0
 10 37  1  0  0  0  0
 10 38  1  0  0  0  0
 11 39  1  0  0  0  0
 11 40  1  0  0  0  0
 12 16  1  0  0  0  0
 12 41  1  0  0  0  0
 13 22  1  0  0  0  0
 13 42  1  0  0  0  0
 13 43  1  0  0  0  0
 14 15  1  0  0  0  0
 14 22  2  0  0  0  0
 15 17  1  0  0  0  0
 15 26  1  0  0  0  0
 15 28  1  0  0  0  0
 16 44  1  0  0  0  0
 16 45  1  0  0  0  0
 17 21  1  0  0  0  0
 17 24  1  0  0  0  0
 17 46  1  0  0  0  0
 18 21  1  0  0  0  0
 18 47  1  0  0  0  0
 19 48  1  0  0  0  0
 19 49  1  0  0  0  0
 19 50  1  0  0  0  0
 20 51  1  0  0  0  0
 20 52  1  0  0  0  0
 20 53  1  0  0  0  0
 21 54  1  0  0  0  0
 21 55  1  0  0  0  0
 22 56  1  0  0  0  0
 23 57  1  0  0  0  0
 23 58  1  0  0  0  0
 23 59  1  0  0  0  0
 24 27  1  0  0  0  0
 24 30  1  0  0  0  0
 24 31  1  0  0  0  0
 25 32  1  0  0  0  0
 25 33  1  0  0  0  0
 25 60  1  0  0  0  0
 26 29  1  0  0  0  0
 26 61  1  0  0  0  0
 26 62  1  0  0  0  0
 27 29  1  0  0  0  0
 27 63  1  0  0  0  0
 28 64  1  0  0  0  0
 28 65  1  0  0  0  0
 28 66  1  0  0  0  0
 29 67  1  0  0  0  0
 29 68  1  0  0  0  0
 30 70  1  0  0  0  0
 30 71  1  0  0  0  0
 30 72  1  0  0  0  0
 31 73  1  0  0  0  0
 31 74  1  0  0  0  0
 31 75  1  0  0  0  0
 32 76  1  0  0  0  0
 32 77  1  0  0  0  0
 32 78  1  0  0  0  0
 33 79  1  0  0  0  0
 33 80  1  0  0  0  0
 33 81  1  0  0  0  0
M  END
> <PUBCHEM_COMPOUND_CID>
21582929

> <PUBCHEM_CONFORMER_RMSD>
0.8

> <PUBCHEM_CONFORMER_DIVERSEORDER>
1

> <PUBCHEM_MMFF94_PARTIAL_CHARGES>
15
1 -0.68
12 0.28
13 0.14
14 -0.28
15 0.14
18 0.28
2 -0.68
22 -0.29
27 0.28
3 -0.68
56 0.15
69 0.4
8 0.14
82 0.4
83 0.4

> <PUBCHEM_EFFECTIVE_ROTOR_COUNT>
3.4

> <PUBCHEM_PHARMACOPHORE_FEATURES>
13
1 1 acceptor
1 1 donor
1 2 acceptor
1 2 donor
1 3 acceptor
1 3 donor
3 24 30 31 hydrophobe
3 25 32 33 hydrophobe
5 6 7 9 12 16 rings
6 15 17 24 26 27 29 rings
6 4 5 6 7 10 11 rings
6 4 5 8 13 14 22 rings
6 8 14 15 17 18 21 rings

> <PUBCHEM_HEAVY_ATOM_COUNT>
33

> <PUBCHEM_ATOM_DEF_STEREO_COUNT>
11

> <PUBCHEM_ATOM_UDEF_STEREO_COUNT>
0

> <PUBCHEM_BOND_DEF_STEREO_COUNT>
0

> <PUBCHEM_BOND_UDEF_STEREO_COUNT>
0

> <PUBCHEM_ISOTOPIC_ATOM_COUNT>
0

> <PUBCHEM_COMPONENT_COUNT>
1

> <PUBCHEM_CACTVS_TAUTO_COUNT>
1

> <PUBCHEM_CONFORMER_ID>
0149545100000001

> <PUBCHEM_MMFF94_ENERGY>
166.6259

> <PUBCHEM_FEATURE_SELFOVERLAP>
66.069

> <PUBCHEM_SHAPE_FINGERPRINT>
10763959 59 17967253109215547316
11089746 13 18407476661165141972
11315181 36 17704074001316035561
11719270 70 18131347480362312326
12107698 1 16702581636481241881
12166972 35 18335985349733053781
12236239 1 18411136930815186402
12516196 113 17917710210426325944
12788726 201 18130505228125930625
13690498 29 18129647726054545647
13811026 1 18411694421896875089
14790565 3 18339366258543030297
14856354 85 15195561334307794061
15082195 135 18266182919080536380
15183329 4 18411415090114145859
15238133 3 15068608384342566631
15420108 30 17618509779226576376
15788980 27 18334018297708358712
17349148 13 18202572782177394456
17857418 61 18343302552750486184
18608769 82 18336830900989076883
18681886 176 18272363196561301488
19377110 9 10663824048882982628
19958102 18 18334569153107760327
20028762 73 18131631154441549438
20511986 3 18341317972795938222
20715895 44 18409165519610078812
20775438 99 16693252478173453663
21033648 29 13190631593620744108
21033650 10 16700368302204904824
21267235 1 18412834598238320315
21279426 13 18411138034780232022
21857420 4 12848568681174988893
21859007 373 18042106718246928428
22393880 68 18341038662925927861
23402539 116 18272088275182665536
23522609 53 17771655552891574393
23559900 14 18342451577768803680
23569917 315 18411987957179929879
23569943 247 17898287200378908418
23576562 1 18115601490288751324
249057 3 18410293618777534396
2838139 119 18113898252008671573
3004659 81 18409162216891102048
335352 9 18410013217948829790
3383291 50 18341613754161844267
350125 39 18409729526067471528
3633792 109 18340483362061425381
4015057 19 18340487875782131017
4017518 198 17775290452797731262
404807 14 17050508647981308430
4058900 60 17968938579274055451
4073 2 18114466777188267994
439807 62 18200589328469707535
484989 97 18341055228145472314
5104073 3 18272097127701035802
5283173 99 18411980239270677465
57724786 102 15792310305231231318
59755656 215 18408603626461212014
59755656 520 17458344152257403235
6086070 43 18263907895935219028
6328613 192 18114190774068574676
6669772 16 17486193806747153176
7495541 125 16988839518483936384

> <PUBCHEM_SHAPE_MULTIPOLES>
661.52
16.63
2.56
1.4
3.31
0.13
-0.01
0.67
4.52
0.2
-0.01
-0.95
-0.01
-0.29

> <PUBCHEM_SHAPE_SELFOVERLAP>
1402.736

> <PUBCHEM_SHAPE_VOLUME>
365.6

> <PUBCHEM_COORDINATE_TYPE>
2
5
10

$$$$
