21672545
  -OEChem-08272012283D

 89 93  0     1  0  0  0  0  0999 V2000
   -3.6477   -3.2477   -0.8507 O   0  0  0  0  0  0  0  0  0  0  0  0
   -0.1882    3.5715    0.3492 O   0  0  0  0  0  0  0  0  0  0  0  0
    5.5153   -1.7901   -0.6617 O   0  0  0  0  0  0  0  0  0  0  0  0
    6.6360    0.7726   -0.5343 O   0  0  0  0  0  0  0  0  0  0  0  0
    5.4967   -2.9314    1.3467 O   0  0  0  0  0  0  0  0  0  0  0  0
   -1.9562   -0.6415    0.2093 C   0  0  1  0  0  0  0  0  0  0  0  0
   -1.5395    0.8380   -0.2419 C   0  0  2  0  0  0  0  0  0  0  0  0
   -3.4406   -0.8933   -0.1913 C   0  0  2  0  0  0  0  0  0  0  0  0
   -4.4807    0.1257    0.3466 C   0  0  2  0  0  0  0  0  0  0  0  0
   -0.0582    1.1210    0.2955 C   0  0  1  0  0  0  0  0  0  0  0  0
   -2.5943    1.8622    0.2972 C   0  0  0  0  0  0  0  0  0  0  0  0
   -5.7350   -0.4279   -0.3916 C   0  0  1  0  0  0  0  0  0  0  0  0
   -4.0578    1.5377   -0.0824 C   0  0  0  0  0  0  0  0  0  0  0  0
   -4.1224   -2.2504    0.0391 C   0  0  1  0  0  0  0  0  0  0  0  0
    2.4176    0.1714    0.3433 C   0  0  2  0  0  0  0  0  0  0  0  0
   -1.0171   -1.6278   -0.5299 C   0  0  0  0  0  0  0  0  0  0  0  0
    0.9092   -0.0567    0.0105 C   0  0  0  0  0  0  0  0  0  0  0  0
   -5.6195   -1.9621   -0.2129 C   0  0  0  0  0  0  0  0  0  0  0  0
    2.8806    1.5206   -0.3097 C   0  0  1  0  0  0  0  0  0  0  0  0
    0.5350    2.4687   -0.1944 C   0  0  2  0  0  0  0  0  0  0  0  0
   -1.7448   -0.8787    1.7354 C   0  0  0  0  0  0  0  0  0  0  0  0
   -1.5368    1.0025   -1.8019 C   0  0  0  0  0  0  0  0  0  0  0  0
    2.0007    2.6803    0.1826 C   0  0  0  0  0  0  0  0  0  0  0  0
    0.4363   -1.2528   -0.4089 C   0  0  0  0  0  0  0  0  0  0  0  0
   -4.7287    0.1191    1.8738 C   0  0  0  0  0  0  0  0  0  0  0  0
    4.4275    1.8422   -0.2705 C   0  0  0  0  0  0  0  0  0  0  0  0
   -7.0936    0.1144    0.0299 C   0  0  0  0  0  0  0  0  0  0  0  0
    3.3325   -0.9617   -0.1976 C   0  0  0  0  0  0  0  0  0  0  0  0
    5.2329    0.5990   -0.7512 C   0  0  2  0  0  0  0  0  0  0  0  0
    4.8266   -0.6938   -0.0511 C   0  0  2  0  0  0  0  0  0  0  0  0
    2.4970    0.1398    1.8907 C   0  0  0  0  0  0  0  0  0  0  0  0
    4.8502    2.1250    1.2008 C   0  0  0  0  0  0  0  0  0  0  0  0
    4.8235    3.1032   -1.0694 C   0  0  0  0  0  0  0  0  0  0  0  0
   -7.3342    1.4993   -0.5711 C   0  0  0  0  0  0  0  0  0  0  0  0
   -8.2107   -0.8456   -0.3795 C   0  0  0  0  0  0  0  0  0  0  0  0
    5.7850   -2.8433    0.1608 C   0  0  0  0  0  0  0  0  0  0  0  0
    6.5033   -3.9093   -0.6097 C   0  0  0  0  0  0  0  0  0  0  0  0
   -3.4369   -0.8049   -1.2878 H   0  0  0  0  0  0  0  0  0  0  0  0
   -0.1340    1.2069    1.3886 H   0  0  0  0  0  0  0  0  0  0  0  0
   -2.5075    1.9530    1.3853 H   0  0  0  0  0  0  0  0  0  0  0  0
   -2.3913    2.8619   -0.1008 H   0  0  0  0  0  0  0  0  0  0  0  0
   -5.6161   -0.2367   -1.4697 H   0  0  0  0  0  0  0  0  0  0  0  0
   -4.1888    1.6652   -1.1634 H   0  0  0  0  0  0  0  0  0  0  0  0
   -4.6883    2.2950    0.3939 H   0  0  0  0  0  0  0  0  0  0  0  0
   -3.9792   -2.6185    1.0587 H   0  0  0  0  0  0  0  0  0  0  0  0
   -1.1419   -2.6340   -0.1092 H   0  0  0  0  0  0  0  0  0  0  0  0
   -1.2691   -1.7085   -1.5938 H   0  0  0  0  0  0  0  0  0  0  0  0
   -6.0020   -2.4967   -1.0893 H   0  0  0  0  0  0  0  0  0  0  0  0
   -6.1727   -2.3113    0.6662 H   0  0  0  0  0  0  0  0  0  0  0  0
    2.6626    1.4185   -1.3864 H   0  0  0  0  0  0  0  0  0  0  0  0
    0.4678    2.5392   -1.2847 H   0  0  0  0  0  0  0  0  0  0  0  0
   -0.7178   -1.1707    1.9794 H   0  0  0  0  0  0  0  0  0  0  0  0
   -2.3719   -1.6873    2.1190 H   0  0  0  0  0  0  0  0  0  0  0  0
   -1.9330    0.0137    2.3327 H   0  0  0  0  0  0  0  0  0  0  0  0
   -0.6961    0.4900   -2.2787 H   0  0  0  0  0  0  0  0  0  0  0  0
   -2.4470    0.6337   -2.2783 H   0  0  0  0  0  0  0  0  0  0  0  0
   -1.4674    2.0585   -2.0867 H   0  0  0  0  0  0  0  0  0  0  0  0
    2.0837    2.8477    1.2608 H   0  0  0  0  0  0  0  0  0  0  0  0
    2.3177    3.6256   -0.2712 H   0  0  0  0  0  0  0  0  0  0  0  0
    1.1081   -2.0802   -0.6104 H   0  0  0  0  0  0  0  0  0  0  0  0
   -3.8659    0.4491    2.4484 H   0  0  0  0  0  0  0  0  0  0  0  0
   -5.5156    0.8287    2.1506 H   0  0  0  0  0  0  0  0  0  0  0  0
   -5.0200   -0.8637    2.2549 H   0  0  0  0  0  0  0  0  0  0  0  0
   -7.1781    0.2013    1.1164 H   0  0  0  0  0  0  0  0  0  0  0  0
    3.1000   -1.9111    0.3035 H   0  0  0  0  0  0  0  0  0  0  0  0
    3.1225   -1.1337   -1.2636 H   0  0  0  0  0  0  0  0  0  0  0  0
    5.0998    0.4718   -1.8338 H   0  0  0  0  0  0  0  0  0  0  0  0
    5.1289   -0.6418    0.9985 H   0  0  0  0  0  0  0  0  0  0  0  0
    3.4909   -0.0730    2.2820 H   0  0  0  0  0  0  0  0  0  0  0  0
    1.8732   -0.6729    2.2879 H   0  0  0  0  0  0  0  0  0  0  0  0
    2.1382    1.0570    2.3634 H   0  0  0  0  0  0  0  0  0  0  0  0
   -4.1709   -4.0521   -0.6931 H   0  0  0  0  0  0  0  0  0  0  0  0
    5.8740    2.5217    1.2285 H   0  0  0  0  0  0  0  0  0  0  0  0
    4.2273    2.8941    1.6667 H   0  0  0  0  0  0  0  0  0  0  0  0
    4.8678    1.2610    1.8568 H   0  0  0  0  0  0  0  0  0  0  0  0
    4.4982    3.0126   -2.1113 H   0  0  0  0  0  0  0  0  0  0  0  0
    4.3779    4.0122   -0.6542 H   0  0  0  0  0  0  0  0  0  0  0  0
    5.9065    3.2645   -1.0742 H   0  0  0  0  0  0  0  0  0  0  0  0
    0.1657    4.3847   -0.0496 H   0  0  0  0  0  0  0  0  0  0  0  0
   -7.1657    1.5066   -1.6531 H   0  0  0  0  0  0  0  0  0  0  0  0
   -6.7012    2.2604   -0.1147 H   0  0  0  0  0  0  0  0  0  0  0  0
   -8.3684    1.8188   -0.3986 H   0  0  0  0  0  0  0  0  0  0  0  0
   -8.1568   -1.0915   -1.4457 H   0  0  0  0  0  0  0  0  0  0  0  0
   -8.2006   -1.7758    0.1955 H   0  0  0  0  0  0  0  0  0  0  0  0
   -9.1915   -0.3898   -0.2000 H   0  0  0  0  0  0  0  0  0  0  0  0
    6.9588    1.4206   -1.1822 H   0  0  0  0  0  0  0  0  0  0  0  0
    7.4479   -3.5163   -0.9939 H   0  0  0  0  0  0  0  0  0  0  0  0
    6.7205   -4.7519    0.0530 H   0  0  0  0  0  0  0  0  0  0  0  0
    5.8719   -4.2640   -1.4282 H   0  0  0  0  0  0  0  0  0  0  0  0
  1 14  1  0  0  0  0
  1 72  1  0  0  0  0
  2 20  1  0  0  0  0
  2 79  1  0  0  0  0
  3 30  1  0  0  0  0
  3 36  1  0  0  0  0
  4 29  1  0  0  0  0
  4 86  1  0  0  0  0
  5 36  2  0  0  0  0
  6  7  1  0  0  0  0
  6  8  1  0  0  0  0
  6 16  1  0  0  0  0
  6 21  1  0  0  0  0
  7 10  1  0  0  0  0
  7 11  1  0  0  0  0
  7 22  1  0  0  0  0
  8  9  1  0  0  0  0
  8 14  1  0  0  0  0
  8 38  1  0  0  0  0
  9 12  1  0  0  0  0
  9 13  1  0  0  0  0
  9 25  1  0  0  0  0
 10 17  1  0  0  0  0
 10 20  1  0  0  0  0
 10 39  1  0  0  0  0
 11 13  1  0  0  0  0
 11 40  1  0  0  0  0
 11 41  1  0  0  0  0
 12 18  1  0  0  0  0
 12 27  1  0  0  0  0
 12 42  1  0  0  0  0
 13 43  1  0  0  0  0
 13 44  1  0  0  0  0
 14 18  1  0  0  0  0
 14 45  1  0  0  0  0
 15 17  1  0  0  0  0
 15 19  1  0  0  0  0
 15 28  1  0  0  0  0
 15 31  1  0  0  0  0
 16 24  1  0  0  0  0
 16 46  1  0  0  0  0
 16 47  1  0  0  0  0
 17 24  2  0  0  0  0
 18 48  1  0  0  0  0
 18 49  1  0  0  0  0
 19 23  1  0  0  0  0
 19 26  1  0  0  0  0
 19 50  1  0  0  0  0
 20 23  1  0  0  0  0
 20 51  1  0  0  0  0
 21 52  1  0  0  0  0
 21 53  1  0  0  0  0
 21 54  1  0  0  0  0
 22 55  1  0  0  0  0
 22 56  1  0  0  0  0
 22 57  1  0  0  0  0
 23 58  1  0  0  0  0
 23 59  1  0  0  0  0
 24 60  1  0  0  0  0
 25 61  1  0  0  0  0
 25 62  1  0  0  0  0
 25 63  1  0  0  0  0
 26 29  1  0  0  0  0
 26 32  1  0  0  0  0
 26 33  1  0  0  0  0
 27 34  1  0  0  0  0
 27 35  1  0  0  0  0
 27 64  1  0  0  0  0
 28 30  1  0  0  0  0
 28 65  1  0  0  0  0
 28 66  1  0  0  0  0
 29 30  1  0  0  0  0
 29 67  1  0  0  0  0
 30 68  1  0  0  0  0
 31 69  1  0  0  0  0
 31 70  1  0  0  0  0
 31 71  1  0  0  0  0
 32 73  1  0  0  0  0
 32 74  1  0  0  0  0
 32 75  1  0  0  0  0
 33 76  1  0  0  0  0
 33 77  1  0  0  0  0
 33 78  1  0  0  0  0
 34 80  1  0  0  0  0
 34 81  1  0  0  0  0
 34 82  1  0  0  0  0
 35 83  1  0  0  0  0
 35 84  1  0  0  0  0
 35 85  1  0  0  0  0
 36 37  1  0  0  0  0
 37 87  1  0  0  0  0
 37 88  1  0  0  0  0
 37 89  1  0  0  0  0
M  END
> <PUBCHEM_COMPOUND_CID>
21672545

> <PUBCHEM_CONFORMER_RMSD>
0.8

> <PUBCHEM_CONFORMER_DIVERSEORDER>
1
2

> <PUBCHEM_MMFF94_PARTIAL_CHARGES>
20
1 -0.68
10 0.14
14 0.28
15 0.14
16 0.14
17 -0.28
2 -0.68
20 0.28
24 -0.29
29 0.28
3 -0.43
30 0.28
36 0.66
37 0.06
4 -0.68
5 -0.57
60 0.15
72 0.4
79 0.4
86 0.4

> <PUBCHEM_EFFECTIVE_ROTOR_COUNT>
5.4

> <PUBCHEM_PHARMACOPHORE_FEATURES>
14
1 1 acceptor
1 1 donor
1 2 acceptor
1 2 donor
1 4 acceptor
1 4 donor
1 5 acceptor
3 26 32 33 hydrophobe
3 27 34 35 hydrophobe
5 8 9 12 14 18 rings
6 10 15 17 19 20 23 rings
6 15 19 26 28 29 30 rings
6 6 7 10 16 17 24 rings
6 6 7 8 9 11 13 rings

> <PUBCHEM_HEAVY_ATOM_COUNT>
37

> <PUBCHEM_ATOM_DEF_STEREO_COUNT>
12

> <PUBCHEM_ATOM_UDEF_STEREO_COUNT>
0

> <PUBCHEM_BOND_DEF_STEREO_COUNT>
0

> <PUBCHEM_BOND_UDEF_STEREO_COUNT>
0

> <PUBCHEM_ISOTOPIC_ATOM_COUNT>
0

> <PUBCHEM_COMPONENT_COUNT>
1

> <PUBCHEM_CACTVS_TAUTO_COUNT>
1

> <PUBCHEM_CONFORMER_ID>
014AB26100000001

> <PUBCHEM_MMFF94_ENERGY>
174.1674

> <PUBCHEM_FEATURE_SELFOVERLAP>
71.143

> <PUBCHEM_SHAPE_FINGERPRINT>
10050765 1 18338798902011678948
10411042 1 18266459798921547582
10554248 39 18335409201502823087
10622 236 17986937738586126055
11135609 187 17975420423458433076
11456790 92 17846226531862857755
11578080 2 13900537761943146577
117089 54 17983024345581940510
11719270 70 17989487398655416543
11963148 33 18266171915321569926
12107183 9 18197225741167474697
12107698 1 18336546023780712330
12166972 35 18114185215621205981
12236239 1 18260546779436394229
12422481 6 17417813885956558478
12516196 113 18343582975492436105
13533116 47 18411138039486493578
13782708 43 18113900433704468594
13811026 1 18337665321911357941
14068700 675 18337391518526849314
14117953 113 18271806757552065007
14341114 176 18411140259910907857
14347332 77 18262797355110540530
14725015 67 18338231545342489418
15001296 14 18187922911003838370
15082195 135 17968391129826139052
15183329 4 18272096001781143921
15361156 5 18041851717163098421
15840311 113 18187085066485349797
17492 89 18194964273957879707
18681886 176 18201151165793918691
19958102 18 18334849541579168351
20028762 73 18271243824889626566
21033648 29 17559943484507000001
21130935 74 18342739645863289339
21267235 1 18410859823888988967
21279426 13 18261104132662430725
21682296 61 18339085886676491247
21781055 127 17417823795153290923
21792934 111 18341038636533807688
23522609 53 18056790743222676921
23559900 14 18340762749900275745
23569914 152 17541342810219832367
23569917 315 18343304778278087759
23569943 247 18264772056382917563
24771750 20 17393337914993060173
25269216 80 14635741690068728906
255183 451 18268156371170115462
3004659 81 18260547814460137528
3103668 31 18043527201339261285
335352 9 18411981391075741509
3383291 50 18336262341054526066
34797466 226 11818989660663659712
350125 39 18410855508022135869
3633792 109 18341891871538888501
4073 2 18115591602746774466
4144715 1 18189060948693890403
5104073 3 18273500078193176610
54039377 194 18339646617087083734
59755656 215 18412827993148156029
6081469 158 18333444327770572567
6086070 43 17060052713741350627
6328613 192 18335423517098831501
70251023 43 18335701586282040546
9831232 110 18341334375234610862
9962374 69 18412818080511946878

> <PUBCHEM_SHAPE_MULTIPOLES>
732.1
19.06
3.72
1.2
9.07
1.03
0.37
7.44
-2.07
-5.63
-0.43
-0.12
-0.03
-0.31

> <PUBCHEM_SHAPE_SELFOVERLAP>
1549.864

> <PUBCHEM_SHAPE_VOLUME>
406.9

> <PUBCHEM_COORDINATE_TYPE>
2
5
10

$$$$
