160180
  -OEChem-08272012173D

 68 72  0     1  0  0  0  0  0999 V2000
    2.6158   -0.1030   -0.1580 O   0  0  0  0  0  0  0  0  0  0  0  0
    0.8407   -2.2009   -0.0966 O   0  0  0  0  0  0  0  0  0  0  0  0
    2.7862    2.1828   -0.5940 O   0  0  0  0  0  0  0  0  0  0  0  0
    5.0074   -2.8645   -0.4198 O   0  0  0  0  0  0  0  0  0  0  0  0
    0.3041   -4.4359    0.3147 O   0  0  0  0  0  0  0  0  0  0  0  0
    6.6997   -0.5371   -0.1461 O   0  0  0  0  0  0  0  0  0  0  0  0
    5.4585    1.7993   -1.4428 O   0  0  0  0  0  0  0  0  0  0  0  0
   -1.8609   -1.4824    0.4745 O   0  0  0  0  0  0  0  0  0  0  0  0
   -3.7070   -3.6313   -0.0843 O   0  0  0  0  0  0  0  0  0  0  0  0
   -2.8046   -6.1222    1.2100 O   0  0  0  0  0  0  0  0  0  0  0  0
   -0.5130    3.3014    2.6530 O   0  0  0  0  0  0  0  0  0  0  0  0
    2.4372    4.5962    1.7567 O   0  0  0  0  0  0  0  0  0  0  0  0
   -1.5843    0.9600   -2.7621 O   0  0  0  0  0  0  0  0  0  0  0  0
   -2.9673    2.8694    2.0338 O   0  0  0  0  0  0  0  0  0  0  0  0
    3.0726   -1.4251   -0.4486 C   0  0  1  0  0  0  0  0  0  0  0  0
    4.5427   -1.5695   -0.0479 C   0  0  2  0  0  0  0  0  0  0  0  0
    5.3997   -0.5076   -0.7372 C   0  0  1  0  0  0  0  0  0  0  0  0
    4.7953    0.8864   -0.5685 C   0  0  2  0  0  0  0  0  0  0  0  0
    3.3055    0.8917   -0.9112 C   0  0  1  0  0  0  0  0  0  0  0  0
    2.1807   -2.3982    0.3159 C   0  0  0  0  0  0  0  0  0  0  0  0
   -0.0555   -3.0813    0.5798 C   0  0  2  0  0  0  0  0  0  0  0  0
   -1.4690   -2.7942    0.0705 C   0  0  1  0  0  0  0  0  0  0  0  0
   -2.4813   -3.7929    0.6309 C   0  0  2  0  0  0  0  0  0  0  0  0
   -1.9819   -5.2281    0.4690 C   0  0  1  0  0  0  0  0  0  0  0  0
   -0.5531   -5.3591    0.9771 C   0  0  0  0  0  0  0  0  0  0  0  0
    1.4796    2.2476   -0.2121 C   0  0  0  0  0  0  0  0  0  0  0  0
    1.1265    2.7453    1.0405 C   0  0  0  0  0  0  0  0  0  0  0  0
    0.4922    1.8075   -1.0941 C   0  0  0  0  0  0  0  0  0  0  0  0
   -0.8558    1.8659   -0.7208 C   0  0  0  0  0  0  0  0  0  0  0  0
   -1.2099    2.3656    0.5343 C   0  0  0  0  0  0  0  0  0  0  0  0
   -0.2157    2.8058    1.4164 C   0  0  0  0  0  0  0  0  0  0  0  0
    2.1928    3.2144    1.9792 C   0  0  0  0  0  0  0  0  0  0  0  0
   -1.8944    1.3979   -1.6611 C   0  0  0  0  0  0  0  0  0  0  0  0
   -2.6284    2.4342    0.9404 C   0  0  0  0  0  0  0  0  0  0  0  0
   -3.3131    1.4666   -1.2550 C   0  0  0  0  0  0  0  0  0  0  0  0
   -3.6671    1.9663    0.0000 C   0  0  0  0  0  0  0  0  0  0  0  0
   -4.3072    1.0269   -2.1373 C   0  0  0  0  0  0  0  0  0  0  0  0
   -5.0153    2.0268    0.3724 C   0  0  0  0  0  0  0  0  0  0  0  0
   -5.6495    1.0882   -1.7618 C   0  0  0  0  0  0  0  0  0  0  0  0
   -6.0028    1.5872   -0.5097 C   0  0  0  0  0  0  0  0  0  0  0  0
    2.9364   -1.6121   -1.5225 H   0  0  0  0  0  0  0  0  0  0  0  0
    4.6568   -1.4798    1.0395 H   0  0  0  0  0  0  0  0  0  0  0  0
    5.5373   -0.7424   -1.7999 H   0  0  0  0  0  0  0  0  0  0  0  0
    4.9594    1.2499    0.4528 H   0  0  0  0  0  0  0  0  0  0  0  0
    3.1484    0.7258   -1.9852 H   0  0  0  0  0  0  0  0  0  0  0  0
    2.2509   -2.2035    1.3930 H   0  0  0  0  0  0  0  0  0  0  0  0
    2.4973   -3.4273    0.1151 H   0  0  0  0  0  0  0  0  0  0  0  0
    0.0113   -2.8769    1.6571 H   0  0  0  0  0  0  0  0  0  0  0  0
   -1.4823   -2.8089   -1.0268 H   0  0  0  0  0  0  0  0  0  0  0  0
   -2.7035   -3.5831    1.6847 H   0  0  0  0  0  0  0  0  0  0  0  0
   -2.0329   -5.5217   -0.5866 H   0  0  0  0  0  0  0  0  0  0  0  0
   -0.1798   -6.3709    0.7837 H   0  0  0  0  0  0  0  0  0  0  0  0
   -0.4944   -5.2129    2.0632 H   0  0  0  0  0  0  0  0  0  0  0  0
    4.9031   -2.9559   -1.3823 H   0  0  0  0  0  0  0  0  0  0  0  0
    7.0499   -1.4376   -0.2577 H   0  0  0  0  0  0  0  0  0  0  0  0
    5.3253    1.4929   -2.3560 H   0  0  0  0  0  0  0  0  0  0  0  0
   -2.6981   -1.2725    0.0279 H   0  0  0  0  0  0  0  0  0  0  0  0
   -4.0678   -2.7572    0.1402 H   0  0  0  0  0  0  0  0  0  0  0  0
   -3.7179   -6.0029    0.8980 H   0  0  0  0  0  0  0  0  0  0  0  0
    0.7766    1.4296   -2.0729 H   0  0  0  0  0  0  0  0  0  0  0  0
    1.9346    3.0496    3.0307 H   0  0  0  0  0  0  0  0  0  0  0  0
    3.1292    2.6686    1.8186 H   0  0  0  0  0  0  0  0  0  0  0  0
   -4.0576    0.6334   -3.1191 H   0  0  0  0  0  0  0  0  0  0  0  0
   -5.3186    2.4112    1.3425 H   0  0  0  0  0  0  0  0  0  0  0  0
    0.1322    3.9838    2.9005 H   0  0  0  0  0  0  0  0  0  0  0  0
    3.1405    4.8645    2.3723 H   0  0  0  0  0  0  0  0  0  0  0  0
   -6.4202    0.7463   -2.4467 H   0  0  0  0  0  0  0  0  0  0  0  0
   -7.0485    1.6339   -0.2198 H   0  0  0  0  0  0  0  0  0  0  0  0
  1 15  1  0  0  0  0
  1 19  1  0  0  0  0
  2 20  1  0  0  0  0
  2 21  1  0  0  0  0
  3 19  1  0  0  0  0
  3 26  1  0  0  0  0
  4 16  1  0  0  0  0
  4 54  1  0  0  0  0
  5 21  1  0  0  0  0
  5 25  1  0  0  0  0
  6 17  1  0  0  0  0
  6 55  1  0  0  0  0
  7 18  1  0  0  0  0
  7 56  1  0  0  0  0
  8 22  1  0  0  0  0
  8 57  1  0  0  0  0
  9 23  1  0  0  0  0
  9 58  1  0  0  0  0
 10 24  1  0  0  0  0
 10 59  1  0  0  0  0
 11 31  1  0  0  0  0
 11 65  1  0  0  0  0
 12 32  1  0  0  0  0
 12 66  1  0  0  0  0
 13 33  2  0  0  0  0
 14 34  2  0  0  0  0
 15 16  1  0  0  0  0
 15 20  1  0  0  0  0
 15 41  1  0  0  0  0
 16 17  1  0  0  0  0
 16 42  1  0  0  0  0
 17 18  1  0  0  0  0
 17 43  1  0  0  0  0
 18 19  1  0  0  0  0
 18 44  1  0  0  0  0
 19 45  1  0  0  0  0
 20 46  1  0  0  0  0
 20 47  1  0  0  0  0
 21 22  1  0  0  0  0
 21 48  1  0  0  0  0
 22 23  1  0  0  0  0
 22 49  1  0  0  0  0
 23 24  1  0  0  0  0
 23 50  1  0  0  0  0
 24 25  1  0  0  0  0
 24 51  1  0  0  0  0
 25 52  1  0  0  0  0
 25 53  1  0  0  0  0
 26 27  2  0  0  0  0
 26 28  1  0  0  0  0
 27 31  1  0  0  0  0
 27 32  1  0  0  0  0
 28 29  2  0  0  0  0
 28 60  1  0  0  0  0
 29 30  1  0  0  0  0
 29 33  1  0  0  0  0
 30 31  2  0  0  0  0
 30 34  1  0  0  0  0
 32 61  1  0  0  0  0
 32 62  1  0  0  0  0
 33 35  1  0  0  0  0
 34 36  1  0  0  0  0
 35 36  1  0  0  0  0
 35 37  2  0  0  0  0
 36 38  2  0  0  0  0
 37 39  1  0  0  0  0
 37 63  1  0  0  0  0
 38 40  1  0  0  0  0
 38 64  1  0  0  0  0
 39 40  2  0  0  0  0
 39 67  1  0  0  0  0
 40 68  1  0  0  0  0
M  END
> <PUBCHEM_COMPOUND_CID>
160180

> <PUBCHEM_CONFORMER_RMSD>
1

> <PUBCHEM_CONFORMER_DIVERSEORDER>
1
253
185
364
94
135
17
215
30
38
137
283
124
279
12
330
247
170
358
71
352
238
229
162
106
31
136
326
82
140
367
147
102
151
315
178
242
190
176
348
187
73
368
16
350
84
234
337
354
245
25
243
349
121
303
87
145
168
125
138
133
275
289
41
320
213
128
59
157
333
203
182
204
273
310
205
70
143
13
132
39
54
214
80
109
284
265
227
267
51
317
8
244
363
220
324
166
304
332
293
44
47
92
306
274
50
4
233
154
196
259
49
83
255
167
252
336
277
295
90
134
328
260
75
123
53
237
222
86
172
291
302
346
183
343
142
171
64
115
96
316
353
341
285
117
67
120
15
212
173
122
339
95
224
89
195
62
305
2
160
61
76
362
118
288
127
268
232
223
81
9
99
101
100
335
18
250
191
370
19
361
286
312
129
3
272
338
359
24
296
77
6
66
282
278
241
294
254
301
27
321
126
60
281
313
290
11
192
79
369
55
144
209
230
48
262
156
331
103
249
36
148
114
10
198
161
257
351
78
58
329
45
158
119
177
110
28
221
107
7
180
216
235
193
292
63
152
355
239
199
130
218
111
150
269
251
309
287
194
314
112
155
225
270
113
345
360
264
42
280
231
248
325
85
149
347
32
208
366
217
91
5
146
174
93
327
188
356
226
184
299
342
46
256
20
236
141
240
197
298
271
372
340
258
68
344
206
72
34
35
261
74
323
318
164
228
29
311
308
186
165
175
37
246
276
189
23
202
300
131
43
153
69
40
365
65
334
319
22
104
26
97
201
57
322
88
33
179
159
207
263
307
116
56
211
52
357
210
181
105
108
21
169
163
98
266
14
219
297
139
200
371

> <PUBCHEM_MMFF94_PARTIAL_CHARGES>
53
1 -0.56
10 -0.68
11 -0.53
12 -0.68
13 -0.57
14 -0.57
15 0.28
16 0.28
17 0.28
18 0.28
19 0.56
2 -0.56
20 0.28
21 0.56
22 0.28
23 0.28
24 0.28
25 0.28
26 0.08
27 -0.14
28 -0.15
29 0.09
3 -0.36
30 0.09
31 0.08
32 0.42
33 0.4
34 0.4
35 0.09
36 0.09
37 -0.15
38 -0.15
39 -0.15
4 -0.68
40 -0.15
5 -0.56
54 0.4
55 0.4
56 0.4
57 0.4
58 0.4
59 0.4
6 -0.68
60 0.15
63 0.15
64 0.15
65 0.45
66 0.4
67 0.15
68 0.15
7 -0.68
8 -0.68
9 -0.68

> <PUBCHEM_EFFECTIVE_ROTOR_COUNT>
8.4

> <PUBCHEM_PHARMACOPHORE_FEATURES>
26
1 1 acceptor
1 10 acceptor
1 10 donor
1 11 donor
1 12 acceptor
1 12 donor
1 13 acceptor
1 14 acceptor
1 2 acceptor
1 3 acceptor
1 4 acceptor
1 4 donor
1 5 acceptor
1 6 acceptor
1 6 donor
1 7 acceptor
1 7 donor
1 8 acceptor
1 8 donor
1 9 acceptor
1 9 donor
6 1 15 16 17 18 19 rings
6 26 27 28 29 30 31 rings
6 29 30 33 34 35 36 rings
6 35 36 37 38 39 40 rings
6 5 21 22 23 24 25 rings

> <PUBCHEM_HEAVY_ATOM_COUNT>
40

> <PUBCHEM_ATOM_DEF_STEREO_COUNT>
9

> <PUBCHEM_ATOM_UDEF_STEREO_COUNT>
0

> <PUBCHEM_BOND_DEF_STEREO_COUNT>
0

> <PUBCHEM_BOND_UDEF_STEREO_COUNT>
0

> <PUBCHEM_ISOTOPIC_ATOM_COUNT>
0

> <PUBCHEM_COMPONENT_COUNT>
1

> <PUBCHEM_CACTVS_TAUTO_COUNT>
5

> <PUBCHEM_CONFORMER_ID>
000271B400000001

> <PUBCHEM_MMFF94_ENERGY>
131.4717

> <PUBCHEM_FEATURE_SELFOVERLAP>
132.135

> <PUBCHEM_SHAPE_FINGERPRINT>
10721379 63 17043379595085549797
1100329 8 18411981329970246342
11135609 187 18264203621602913909
12156800 1 18191561229391953554
12788726 201 17774164487379551720
1361 2 18192434078093883235
14028597 1 17915188923412347753
14932702 115 18266190589775517676
150020 26 16821096087657920531
15351339 4 18337380565901899827
15483637 11 18263365956840510151
16993438 75 18260840335987732835
17138139 8 18201420494223451317
19319366 153 18266448820141374063
20028762 73 18054224324512360510
20764821 26 18409721833660004779
20775438 99 17982417642146983839
21133410 52 17832126243660745250
21814621 53 15334594339438866222
22223350 30 18337942489405337634
23559900 14 18340198708519486389
244849 19 17843675814625053888
3383291 50 18410856525343972275
463206 1 18342175527209193436
4760202 170 17327731208238988919
66674814 147 18264769865616259940

> <PUBCHEM_SHAPE_MULTIPOLES>
741.01
11.16
7.85
1.83
4.87
13.7
-0.06
-3.39
4.82
-2.92
-4.99
-1.13
-1.89
0.99

> <PUBCHEM_SHAPE_SELFOVERLAP>
1621.818

> <PUBCHEM_SHAPE_VOLUME>
394.6

> <PUBCHEM_COORDINATE_TYPE>
2
5
10

$$$$
