182449
  -OEChem-08272012113D

 29 31  0     0  0  0  0  0  0999 V2000
    2.8718    2.0362    0.0011 O   0  0  0  0  0  0  0  0  0  0  0  0
    0.3621    2.5880   -0.0028 O   0  0  0  0  0  0  0  0  0  0  0  0
   -0.9097   -2.6023   -0.0019 O   0  0  0  0  0  0  0  0  0  0  0  0
   -3.4335   -2.0442    0.0017 O   0  0  0  0  0  0  0  0  0  0  0  0
    1.1341    0.3527    0.0000 C   0  0  0  0  0  0  0  0  0  0  0  0
    0.7872   -0.9999   -0.0005 C   0  0  0  0  0  0  0  0  0  0  0  0
   -1.6791   -0.3675   -0.0001 C   0  0  0  0  0  0  0  0  0  0  0  0
   -1.3322    0.9851   -0.0002 C   0  0  0  0  0  0  0  0  0  0  0  0
    0.0870    1.3946   -0.0005 C   0  0  0  0  0  0  0  0  0  0  0  0
   -0.6320   -1.4095   -0.0009 C   0  0  0  0  0  0  0  0  0  0  0  0
    2.4829    0.7277    0.0008 C   0  0  0  0  0  0  0  0  0  0  0  0
    3.4783   -0.2499    0.0009 C   0  0  0  0  0  0  0  0  0  0  0  0
    1.7893   -1.9777   -0.0004 C   0  0  0  0  0  0  0  0  0  0  0  0
   -3.0280   -0.7425    0.0003 C   0  0  0  0  0  0  0  0  0  0  0  0
    3.1323   -1.5997    0.0002 C   0  0  0  0  0  0  0  0  0  0  0  0
   -2.3343    1.9629    0.0001 C   0  0  0  0  0  0  0  0  0  0  0  0
   -4.0234    0.2352    0.0009 C   0  0  0  0  0  0  0  0  0  0  0  0
   -3.6773    1.5849    0.0008 C   0  0  0  0  0  0  0  0  0  0  0  0
    4.9244    0.1258    0.0009 C   0  0  0  0  0  0  0  0  0  0  0  0
    1.5471   -3.0370   -0.0009 H   0  0  0  0  0  0  0  0  0  0  0  0
    3.8968   -2.3723    0.0000 H   0  0  0  0  0  0  0  0  0  0  0  0
   -2.0924    3.0223    0.0001 H   0  0  0  0  0  0  0  0  0  0  0  0
   -5.0727   -0.0481    0.0017 H   0  0  0  0  0  0  0  0  0  0  0  0
   -4.4542    2.3442    0.0012 H   0  0  0  0  0  0  0  0  0  0  0  0
    5.1656    0.7108   -0.8929 H   0  0  0  0  0  0  0  0  0  0  0  0
    5.1647    0.7146    0.8924 H   0  0  0  0  0  0  0  0  0  0  0  0
    5.5765   -0.7543    0.0033 H   0  0  0  0  0  0  0  0  0  0  0  0
    2.1049    2.6276    0.0067 H   0  0  0  0  0  0  0  0  0  0  0  0
   -2.6708   -2.6417    0.0035 H   0  0  0  0  0  0  0  0  0  0  0  0
  1 11  1  0  0  0  0
  1 28  1  0  0  0  0
  2  9  2  0  0  0  0
  3 10  2  0  0  0  0
  4 14  1  0  0  0  0
  4 29  1  0  0  0  0
  5  6  2  0  0  0  0
  5  9  1  0  0  0  0
  5 11  1  0  0  0  0
  6 10  1  0  0  0  0
  6 13  1  0  0  0  0
  7  8  2  0  0  0  0
  7 10  1  0  0  0  0
  7 14  1  0  0  0  0
  8  9  1  0  0  0  0
  8 16  1  0  0  0  0
 11 12  2  0  0  0  0
 12 15  1  0  0  0  0
 12 19  1  0  0  0  0
 13 15  2  0  0  0  0
 13 20  1  0  0  0  0
 14 17  2  0  0  0  0
 15 21  1  0  0  0  0
 16 18  2  0  0  0  0
 16 22  1  0  0  0  0
 17 18  1  0  0  0  0
 17 23  1  0  0  0  0
 18 24  1  0  0  0  0
 19 25  1  0  0  0  0
 19 26  1  0  0  0  0
 19 27  1  0  0  0  0
M  END
> <PUBCHEM_COMPOUND_CID>
182449

> <PUBCHEM_CONFORMER_RMSD>
0.4

> <PUBCHEM_CONFORMER_DIVERSEORDER>
1

> <PUBCHEM_MMFF94_PARTIAL_CHARGES>
26
1 -0.53
10 0.4
11 0.08
12 -0.14
13 -0.15
14 0.08
15 -0.15
16 -0.15
17 -0.15
18 -0.15
19 0.14
2 -0.57
20 0.15
21 0.15
22 0.15
23 0.15
24 0.15
28 0.45
29 0.45
3 -0.57
4 -0.53
5 0.09
6 0.09
7 0.09
8 0.09
9 0.4

> <PUBCHEM_EFFECTIVE_ROTOR_COUNT>
0

> <PUBCHEM_PHARMACOPHORE_FEATURES>
7
1 1 donor
1 2 acceptor
1 3 acceptor
1 4 donor
6 5 6 11 12 13 15 rings
6 5 6 7 8 9 10 rings
6 7 8 14 16 17 18 rings

> <PUBCHEM_HEAVY_ATOM_COUNT>
19

> <PUBCHEM_ATOM_DEF_STEREO_COUNT>
0

> <PUBCHEM_ATOM_UDEF_STEREO_COUNT>
0

> <PUBCHEM_BOND_DEF_STEREO_COUNT>
0

> <PUBCHEM_BOND_UDEF_STEREO_COUNT>
0

> <PUBCHEM_ISOTOPIC_ATOM_COUNT>
0

> <PUBCHEM_COMPONENT_COUNT>
1

> <PUBCHEM_CACTVS_TAUTO_COUNT>
25

> <PUBCHEM_CONFORMER_ID>
0002C8B100000001

> <PUBCHEM_MMFF94_ENERGY>
61.3706

> <PUBCHEM_FEATURE_SELFOVERLAP>
35.562

> <PUBCHEM_SHAPE_FINGERPRINT>
10062212 137 18410565184890393531
10411042 1 16248847621041754562
10493431 412 18269846311487913657
10608611 8 18411134740387296128
10616163 171 18411983584891776663
10863032 1 18340767052797830811
10967382 1 18266741285669882023
11132069 177 18411133602220852369
11471102 20 18338513041250035558
11578080 2 16914803997633263747
12236239 1 17894348891740676316
12403814 3 17531246132259014229
13132413 78 18411982472458187460
13140716 1 18338517409210748299
13221675 6 18410855451749418702
13380535 76 18411699863773686182
13583140 156 14261363444236286247
14790565 3 17980209586333166864
15196674 1 18410855426074527942
15442244 35 18266457594748814914
15536298 74 18342738464588689326
16945 1 18266459995550831911
17492 89 18410855451687031091
17804303 29 18341052998867359440
18186145 218 18271250404346097660
193761 8 18050286165317321831
19591789 44 18410856581283781890
200 152 18060129938771554253
20510252 161 18272089336071340544
21267235 1 18410583893699415055
21421861 104 17680141881176327802
21501502 16 18410293622581826159
221490 88 18409175432373635410
2334 1 18410855456028379815
23402539 116 18342167869430022566
23463225 33 18409167671135382484
23559900 14 18270679745702112918
238 59 16237548416120229749
2748010 2 18410856516880040303
335352 9 18050567343920222975
34934 24 18337384946520062971
350125 39 18410298029814708673
474 4 17241618380482763700
5104073 3 18410572855965625274
69090 78 18412822469371852631
7364860 26 18341893043189507328
8809292 202 18334017211223992763
9709674 26 18411986866373579742

> <PUBCHEM_SHAPE_MULTIPOLES>
367.53
7.43
2.59
0.6
1.84
0.13
0
-0.45
0
-0.52
0
0.01
0
0

> <PUBCHEM_SHAPE_SELFOVERLAP>
834.294

> <PUBCHEM_SHAPE_VOLUME>
190.5

> <PUBCHEM_COORDINATE_TYPE>
2
5
10

$$$$
