160817
  -OEChem-08272011583D

 28 30  0     0  0  0  0  0  0999 V2000
    2.4921    2.1636    0.0010 O   0  0  0  0  0  0  0  0  0  0  0  0
   -0.0575    2.4793   -0.0018 O   0  0  0  0  0  0  0  0  0  0  0  0
   -0.8683   -2.8029   -0.0023 O   0  0  0  0  0  0  0  0  0  0  0  0
    0.9185    0.3257    0.0000 C   0  0  0  0  0  0  0  0  0  0  0  0
    0.6990   -1.0534    0.0000 C   0  0  0  0  0  0  0  0  0  0  0  0
   -1.5961    0.7257   -0.0003 C   0  0  0  0  0  0  0  0  0  0  0  0
   -1.8155   -0.6533    0.0002 C   0  0  0  0  0  0  0  0  0  0  0  0
   -0.2211    1.2656   -0.0009 C   0  0  0  0  0  0  0  0  0  0  0  0
   -0.6759   -1.5933   -0.0002 C   0  0  0  0  0  0  0  0  0  0  0  0
    2.2265    0.8247    0.0006 C   0  0  0  0  0  0  0  0  0  0  0  0
    3.3086   -0.0560    0.0010 C   0  0  0  0  0  0  0  0  0  0  0  0
    1.7877   -1.9335    0.0004 C   0  0  0  0  0  0  0  0  0  0  0  0
    3.0897   -1.4322    0.0008 C   0  0  0  0  0  0  0  0  0  0  0  0
   -2.6848    1.6060   -0.0003 C   0  0  0  0  0  0  0  0  0  0  0  0
   -3.1237   -1.1522    0.0008 C   0  0  0  0  0  0  0  0  0  0  0  0
    4.7132    0.4529   -0.0007 C   0  0  0  0  0  0  0  0  0  0  0  0
   -3.9868    1.1047    0.0006 C   0  0  0  0  0  0  0  0  0  0  0  0
   -4.2057   -0.2715    0.0012 C   0  0  0  0  0  0  0  0  0  0  0  0
    1.6434   -3.0106    0.0003 H   0  0  0  0  0  0  0  0  0  0  0  0
    3.9228   -2.1303    0.0006 H   0  0  0  0  0  0  0  0  0  0  0  0
   -2.5426    2.6834   -0.0008 H   0  0  0  0  0  0  0  0  0  0  0  0
   -3.3209   -2.2208    0.0013 H   0  0  0  0  0  0  0  0  0  0  0  0
    4.8991    1.0544   -0.8967 H   0  0  0  0  0  0  0  0  0  0  0  0
    4.8976    1.0649    0.8885 H   0  0  0  0  0  0  0  0  0  0  0  0
    5.4445   -0.3625    0.0051 H   0  0  0  0  0  0  0  0  0  0  0  0
   -4.8310    1.7881    0.0007 H   0  0  0  0  0  0  0  0  0  0  0  0
   -5.2203   -0.6592    0.0018 H   0  0  0  0  0  0  0  0  0  0  0  0
    1.6736    2.6812    0.0040 H   0  0  0  0  0  0  0  0  0  0  0  0
  1 10  1  0  0  0  0
  1 28  1  0  0  0  0
  2  8  2  0  0  0  0
  3  9  2  0  0  0  0
  4  5  2  0  0  0  0
  4  8  1  0  0  0  0
  4 10  1  0  0  0  0
  5  9  1  0  0  0  0
  5 12  1  0  0  0  0
  6  7  1  0  0  0  0
  6  8  1  0  0  0  0
  6 14  2  0  0  0  0
  7  9  1  0  0  0  0
  7 15  2  0  0  0  0
 10 11  2  0  0  0  0
 11 13  1  0  0  0  0
 11 16  1  0  0  0  0
 12 13  2  0  0  0  0
 12 19  1  0  0  0  0
 13 20  1  0  0  0  0
 14 17  1  0  0  0  0
 14 21  1  0  0  0  0
 15 18  1  0  0  0  0
 15 22  1  0  0  0  0
 16 23  1  0  0  0  0
 16 24  1  0  0  0  0
 16 25  1  0  0  0  0
 17 18  2  0  0  0  0
 17 26  1  0  0  0  0
 18 27  1  0  0  0  0
M  END
> <PUBCHEM_COMPOUND_CID>
160817

> <PUBCHEM_CONFORMER_RMSD>
0.4

> <PUBCHEM_CONFORMER_DIVERSEORDER>
1

> <PUBCHEM_MMFF94_PARTIAL_CHARGES>
25
1 -0.53
10 0.08
11 -0.14
12 -0.15
13 -0.15
14 -0.15
15 -0.15
16 0.14
17 -0.15
18 -0.15
19 0.15
2 -0.57
20 0.15
21 0.15
22 0.15
26 0.15
27 0.15
28 0.45
3 -0.57
4 0.09
5 0.09
6 0.09
7 0.09
8 0.4
9 0.4

> <PUBCHEM_EFFECTIVE_ROTOR_COUNT>
0

> <PUBCHEM_PHARMACOPHORE_FEATURES>
6
1 1 donor
1 2 acceptor
1 3 acceptor
6 4 5 10 11 12 13 rings
6 4 5 6 7 8 9 rings
6 6 7 14 15 17 18 rings

> <PUBCHEM_HEAVY_ATOM_COUNT>
18

> <PUBCHEM_ATOM_DEF_STEREO_COUNT>
0

> <PUBCHEM_ATOM_UDEF_STEREO_COUNT>
0

> <PUBCHEM_BOND_DEF_STEREO_COUNT>
0

> <PUBCHEM_BOND_UDEF_STEREO_COUNT>
0

> <PUBCHEM_ISOTOPIC_ATOM_COUNT>
0

> <PUBCHEM_COMPONENT_COUNT>
1

> <PUBCHEM_CACTVS_TAUTO_COUNT>
5

> <PUBCHEM_CONFORMER_ID>
0002743100000001

> <PUBCHEM_MMFF94_ENERGY>
56.3801

> <PUBCHEM_FEATURE_SELFOVERLAP>
30.488

> <PUBCHEM_SHAPE_FINGERPRINT>
10411042 1 16681473985794125839
10608611 8 18410290311267756845
10616163 171 18339926025166231279
10967382 1 18410575067504334726
11132069 177 18412539899078137865
11471102 20 18410570652288543094
12011746 2 18411138026105693788
12403814 3 17531242859435873437
13132413 78 18411982481090352557
13140716 1 18050569839327844426
13221675 6 18410573980962173790
13380535 76 18411700988997166926
13583140 156 16877932858922302945
13862211 1 18410568475172978314
14790565 3 18410304613578060956
15196674 1 18410573942201836647
15230672 131 13218751067143245059
15309172 13 18411708677326003267
15442244 35 18194964037206586202
15536298 74 18343021051872291350
16945 1 18266458904650341671
18186145 218 18342181007676796149
193761 8 17978229692424152679
19591789 44 18410294722241647203
200 152 18131623487839834533
20510252 161 18272089348882408897
21029758 11 18343297085215303705
21249577 43 18410012122030503527
21267235 1 18410865372981610039
21501502 16 18340202002616113743
221490 88 18336554892503251626
2334 1 18410855460413056867
23402539 116 18343292678246269534
23402655 69 18342452600144878893
23463225 33 18408885109526664693
23559900 14 18343019952951565774
2748010 2 18410294679407596647
335352 9 17978228257899814495
34934 24 18410848858858574762
474 4 17169278229120639740
5104073 3 18410293566773691002
537710 114 18410579478457074165
53812653 166 18341891891858372456
54173680 148 18120938566563574467
57005193 9 18409721863856312998
69090 78 18413103974460911071
7364860 26 18342175583428656240
8809292 202 18261395606191176571
9709674 26 18411986874847469806

> <PUBCHEM_SHAPE_MULTIPOLES>
352.82
7.26
2.44
0.6
0.47
0.22
0
-1
0
0.07
0
-0.01
0.01
0

> <PUBCHEM_SHAPE_SELFOVERLAP>
798.991

> <PUBCHEM_SHAPE_VOLUME>
183.7

> <PUBCHEM_COORDINATE_TYPE>
2
5
10

$$$$
