21594133
  -OEChem-08272013363D

 88 92  0     1  0  0  0  0  0999 V2000
   -2.2155    0.2894    2.0691 O   0  0  0  0  0  0  0  0  0  0  0  0
   -1.9376   -2.4906    0.7157 O   0  0  0  0  0  0  0  0  0  0  0  0
    5.6427   -0.6935    0.4012 O   0  0  0  0  0  0  0  0  0  0  0  0
    7.1876   -2.0392   -0.6664 O   0  0  0  0  0  0  0  0  0  0  0  0
   -0.0154    1.2544    0.3117 C   0  0  1  0  0  0  0  0  0  0  0  0
   -1.5686    1.0162   -0.1861 C   0  0  1  0  0  0  0  0  0  0  0  0
    0.7371   -0.1230    0.1405 C   0  0  1  0  0  0  0  0  0  0  0  0
    2.3256   -0.1019    0.2422 C   0  0  2  0  0  0  0  0  0  0  0  0
   -2.2743   -0.0883    0.6794 C   0  0  2  0  0  0  0  0  0  0  0  0
   -3.7966   -0.3109    0.3811 C   0  0  1  0  0  0  0  0  0  0  0  0
    2.8667    1.0323   -0.6960 C   0  0  1  0  0  0  0  0  0  0  0  0
   -4.6308    1.0284    0.3668 C   0  0  1  0  0  0  0  0  0  0  0  0
    0.6962    2.3520   -0.5384 C   0  0  0  0  0  0  0  0  0  0  0  0
   -2.4108    2.3238   -0.0790 C   0  0  0  0  0  0  0  0  0  0  0  0
    0.0652   -1.2299    0.9825 C   0  0  0  0  0  0  0  0  0  0  0  0
    2.2203    2.3955   -0.3864 C   0  0  0  0  0  0  0  0  0  0  0  0
   -3.9017    2.1564   -0.4095 C   0  0  0  0  0  0  0  0  0  0  0  0
    4.4409    1.0968   -0.8603 C   0  0  0  0  0  0  0  0  0  0  0  0
   -1.4300   -1.3674    0.7345 C   0  0  0  0  0  0  0  0  0  0  0  0
    2.8711   -1.4811   -0.2754 C   0  0  0  0  0  0  0  0  0  0  0  0
    0.0602    1.7710    1.7834 C   0  0  0  0  0  0  0  0  0  0  0  0
   -4.1522   -1.1438   -0.8732 C   0  0  0  0  0  0  0  0  0  0  0  0
   -1.5807    0.5664   -1.6873 C   0  0  0  0  0  0  0  0  0  0  0  0
   -6.0237    0.8036   -0.3119 C   0  0  0  0  0  0  0  0  0  0  0  0
    2.7937    0.0619    1.7063 C   0  0  0  0  0  0  0  0  0  0  0  0
    5.0758   -0.3318   -0.8553 C   0  0  2  0  0  0  0  0  0  0  0  0
   -5.6197   -1.6575   -0.8192 C   0  0  0  0  0  0  0  0  0  0  0  0
    4.0642   -1.4055   -1.2335 C   0  0  0  0  0  0  0  0  0  0  0  0
   -6.5406   -0.6229   -0.1255 C   0  0  0  0  0  0  0  0  0  0  0  0
   -4.9016    1.5167    1.8124 C   0  0  0  0  0  0  0  0  0  0  0  0
    5.1248    2.0226    0.1681 C   0  0  0  0  0  0  0  0  0  0  0  0
    4.7388    1.7110   -2.2598 C   0  0  0  0  0  0  0  0  0  0  0  0
   -6.1064   -1.9131   -2.2594 C   0  0  0  0  0  0  0  0  0  0  0  0
   -5.6919   -2.9920   -0.0530 C   0  0  0  0  0  0  0  0  0  0  0  0
    6.6984   -1.5590    0.3471 C   0  0  0  0  0  0  0  0  0  0  0  0
    7.1888   -1.8472    1.7336 C   0  0  0  0  0  0  0  0  0  0  0  0
    0.5694   -0.4151   -0.9044 H   0  0  0  0  0  0  0  0  0  0  0  0
   -4.1720   -0.9013    1.2303 H   0  0  0  0  0  0  0  0  0  0  0  0
    2.4847    0.7686   -1.6963 H   0  0  0  0  0  0  0  0  0  0  0  0
    0.2948    3.3408   -0.2821 H   0  0  0  0  0  0  0  0  0  0  0  0
    0.5053    2.2279   -1.6049 H   0  0  0  0  0  0  0  0  0  0  0  0
   -2.3552    2.7491    0.9252 H   0  0  0  0  0  0  0  0  0  0  0  0
   -1.9997    3.0852   -0.7528 H   0  0  0  0  0  0  0  0  0  0  0  0
    0.1969   -1.0768    2.0565 H   0  0  0  0  0  0  0  0  0  0  0  0
    0.5115   -2.2027    0.7498 H   0  0  0  0  0  0  0  0  0  0  0  0
    2.5910    3.1556   -1.0832 H   0  0  0  0  0  0  0  0  0  0  0  0
    2.5008    2.7497    0.6089 H   0  0  0  0  0  0  0  0  0  0  0  0
   -4.4054    3.1142   -0.2202 H   0  0  0  0  0  0  0  0  0  0  0  0
   -4.0075    1.9993   -1.4885 H   0  0  0  0  0  0  0  0  0  0  0  0
    3.1386   -2.1204    0.5764 H   0  0  0  0  0  0  0  0  0  0  0  0
    2.0904   -2.0339   -0.8126 H   0  0  0  0  0  0  0  0  0  0  0  0
    1.0033    2.2712    2.0076 H   0  0  0  0  0  0  0  0  0  0  0  0
   -0.6946    2.5287    2.0004 H   0  0  0  0  0  0  0  0  0  0  0  0
   -0.0372    0.9830    2.5312 H   0  0  0  0  0  0  0  0  0  0  0  0
   -3.4769   -1.9916   -1.0155 H   0  0  0  0  0  0  0  0  0  0  0  0
   -4.0440   -0.5286   -1.7694 H   0  0  0  0  0  0  0  0  0  0  0  0
   -1.3507   -0.4971   -1.8046 H   0  0  0  0  0  0  0  0  0  0  0  0
   -0.8785    1.1160   -2.3128 H   0  0  0  0  0  0  0  0  0  0  0  0
   -2.5398    0.7298   -2.1753 H   0  0  0  0  0  0  0  0  0  0  0  0
   -6.7633    1.5123    0.0812 H   0  0  0  0  0  0  0  0  0  0  0  0
   -5.9675    1.0089   -1.3885 H   0  0  0  0  0  0  0  0  0  0  0  0
    3.8527   -0.1674    1.8302 H   0  0  0  0  0  0  0  0  0  0  0  0
    2.2732   -0.6228    2.3816 H   0  0  0  0  0  0  0  0  0  0  0  0
    2.6605    1.0716    2.0907 H   0  0  0  0  0  0  0  0  0  0  0  0
    5.8757   -0.3395   -1.6078 H   0  0  0  0  0  0  0  0  0  0  0  0
    4.5381   -2.3940   -1.2632 H   0  0  0  0  0  0  0  0  0  0  0  0
    3.6962   -1.2160   -2.2497 H   0  0  0  0  0  0  0  0  0  0  0  0
   -7.5624   -0.6969   -0.5176 H   0  0  0  0  0  0  0  0  0  0  0  0
   -6.6167   -0.8313    0.9492 H   0  0  0  0  0  0  0  0  0  0  0  0
   -5.5809    2.3776    1.8156 H   0  0  0  0  0  0  0  0  0  0  0  0
   -3.9956    1.8435    2.3273 H   0  0  0  0  0  0  0  0  0  0  0  0
   -5.3676    0.7310    2.4168 H   0  0  0  0  0  0  0  0  0  0  0  0
   -2.6605   -0.3929    2.6005 H   0  0  0  0  0  0  0  0  0  0  0  0
    4.9059    1.7344    1.1986 H   0  0  0  0  0  0  0  0  0  0  0  0
    4.8186    3.0669    0.0449 H   0  0  0  0  0  0  0  0  0  0  0  0
    6.2143    1.9970    0.0464 H   0  0  0  0  0  0  0  0  0  0  0  0
    4.3304    2.7214   -2.3598 H   0  0  0  0  0  0  0  0  0  0  0  0
    4.3152    1.0996   -3.0644 H   0  0  0  0  0  0  0  0  0  0  0  0
    5.8186    1.7854   -2.4363 H   0  0  0  0  0  0  0  0  0  0  0  0
   -5.4555   -2.6293   -2.7738 H   0  0  0  0  0  0  0  0  0  0  0  0
   -7.1231   -2.3219   -2.2683 H   0  0  0  0  0  0  0  0  0  0  0  0
   -6.1163   -0.9895   -2.8483 H   0  0  0  0  0  0  0  0  0  0  0  0
   -5.0791   -3.7605   -0.5374 H   0  0  0  0  0  0  0  0  0  0  0  0
   -5.3353   -2.8867    0.9770 H   0  0  0  0  0  0  0  0  0  0  0  0
   -6.7213   -3.3655   -0.0104 H   0  0  0  0  0  0  0  0  0  0  0  0
    7.5300   -0.9222    2.2051 H   0  0  0  0  0  0  0  0  0  0  0  0
    8.0299   -2.5446    1.6835 H   0  0  0  0  0  0  0  0  0  0  0  0
    6.3896   -2.3067    2.3205 H   0  0  0  0  0  0  0  0  0  0  0  0
  1  9  1  0  0  0  0
  1 73  1  0  0  0  0
  2 19  2  0  0  0  0
  3 26  1  0  0  0  0
  3 35  1  0  0  0  0
  4 35  2  0  0  0  0
  5  6  1  0  0  0  0
  5  7  1  0  0  0  0
  5 13  1  0  0  0  0
  5 21  1  0  0  0  0
  6  9  1  0  0  0  0
  6 14  1  0  0  0  0
  6 23  1  0  0  0  0
  7  8  1  0  0  0  0
  7 15  1  0  0  0  0
  7 37  1  0  0  0  0
  8 11  1  0  0  0  0
  8 20  1  0  0  0  0
  8 25  1  0  0  0  0
  9 10  1  0  0  0  0
  9 19  1  0  0  0  0
 10 12  1  0  0  0  0
 10 22  1  0  0  0  0
 10 38  1  0  0  0  0
 11 16  1  0  0  0  0
 11 18  1  0  0  0  0
 11 39  1  0  0  0  0
 12 17  1  0  0  0  0
 12 24  1  0  0  0  0
 12 30  1  0  0  0  0
 13 16  1  0  0  0  0
 13 40  1  0  0  0  0
 13 41  1  0  0  0  0
 14 17  1  0  0  0  0
 14 42  1  0  0  0  0
 14 43  1  0  0  0  0
 15 19  1  0  0  0  0
 15 44  1  0  0  0  0
 15 45  1  0  0  0  0
 16 46  1  0  0  0  0
 16 47  1  0  0  0  0
 17 48  1  0  0  0  0
 17 49  1  0  0  0  0
 18 26  1  0  0  0  0
 18 31  1  0  0  0  0
 18 32  1  0  0  0  0
 20 28  1  0  0  0  0
 20 50  1  0  0  0  0
 20 51  1  0  0  0  0
 21 52  1  0  0  0  0
 21 53  1  0  0  0  0
 21 54  1  0  0  0  0
 22 27  1  0  0  0  0
 22 55  1  0  0  0  0
 22 56  1  0  0  0  0
 23 57  1  0  0  0  0
 23 58  1  0  0  0  0
 23 59  1  0  0  0  0
 24 29  1  0  0  0  0
 24 60  1  0  0  0  0
 24 61  1  0  0  0  0
 25 62  1  0  0  0  0
 25 63  1  0  0  0  0
 25 64  1  0  0  0  0
 26 28  1  0  0  0  0
 26 65  1  0  0  0  0
 27 29  1  0  0  0  0
 27 33  1  0  0  0  0
 27 34  1  0  0  0  0
 28 66  1  0  0  0  0
 28 67  1  0  0  0  0
 29 68  1  0  0  0  0
 29 69  1  0  0  0  0
 30 70  1  0  0  0  0
 30 71  1  0  0  0  0
 30 72  1  0  0  0  0
 31 74  1  0  0  0  0
 31 75  1  0  0  0  0
 31 76  1  0  0  0  0
 32 77  1  0  0  0  0
 32 78  1  0  0  0  0
 32 79  1  0  0  0  0
 33 80  1  0  0  0  0
 33 81  1  0  0  0  0
 33 82  1  0  0  0  0
 34 83  1  0  0  0  0
 34 84  1  0  0  0  0
 34 85  1  0  0  0  0
 35 36  1  0  0  0  0
 36 86  1  0  0  0  0
 36 87  1  0  0  0  0
 36 88  1  0  0  0  0
M  END
> <PUBCHEM_COMPOUND_CID>
21594133

> <PUBCHEM_CONFORMER_RMSD>
0.8

> <PUBCHEM_CONFORMER_DIVERSEORDER>
1

> <PUBCHEM_MMFF94_PARTIAL_CHARGES>
11
1 -0.68
15 0.06
19 0.45
2 -0.57
26 0.28
3 -0.43
35 0.66
36 0.06
4 -0.57
73 0.4
9 0.34

> <PUBCHEM_EFFECTIVE_ROTOR_COUNT>
4.6

> <PUBCHEM_PHARMACOPHORE_FEATURES>
11
1 1 acceptor
1 1 donor
1 2 acceptor
1 4 acceptor
3 18 31 32 hydrophobe
3 27 33 34 hydrophobe
6 10 12 22 24 27 29 rings
6 5 6 7 9 15 19 rings
6 5 7 8 11 13 16 rings
6 6 9 10 12 14 17 rings
6 8 11 18 20 26 28 rings

> <PUBCHEM_HEAVY_ATOM_COUNT>
36

> <PUBCHEM_ATOM_DEF_STEREO_COUNT>
9

> <PUBCHEM_ATOM_UDEF_STEREO_COUNT>
0

> <PUBCHEM_BOND_DEF_STEREO_COUNT>
0

> <PUBCHEM_BOND_UDEF_STEREO_COUNT>
0

> <PUBCHEM_ISOTOPIC_ATOM_COUNT>
0

> <PUBCHEM_COMPONENT_COUNT>
1

> <PUBCHEM_CACTVS_TAUTO_COUNT>
2

> <PUBCHEM_CONFORMER_ID>
0149801500000001

> <PUBCHEM_MMFF94_ENERGY>
183.9258

> <PUBCHEM_FEATURE_SELFOVERLAP>
55.882

> <PUBCHEM_SHAPE_FINGERPRINT>
10 15 15123501511234216554
10554248 39 17603868940146534550
11135926 11 18337384951659491015
11991303 11 15791744034772789851
12107698 1 18260546693594960268
12166972 35 18335421262288434692
12236239 1 18272936033229121193
12645989 146 18335987489148591110
12788726 201 18338240340786970945
13583140 156 16128656319442044233
13782708 43 17988641929937064919
13811026 1 18410571799467161559
14068700 675 18343022181396469040
14347332 77 18413107251552684517
14856354 85 17632583751832385693
15082195 135 17824550900823749436
15183329 4 18333736805915717198
1577012 14 18336272301151535748
17349148 13 18201167632366364793
1813 80 14836411332365991400
18681886 176 18411133628919064682
19958102 18 18186795902699605327
20028762 73 18343584023765390406
20105231 36 18114743846267699691
20775438 99 17478584160075753727
21033648 29 12180136422939536710
21130935 74 18130787816159196346
21814621 53 16199601164346323312
22393880 68 18261105236511451053
23081809 10 18410019848729735028
23522609 53 18122095128100135621
23559900 14 18266454489872666265
23569943 247 18042399145084230818
24771293 8 18339080501252570216
24771750 20 17103420909484354053
2838139 119 17603587396181366909
3004659 81 18261112959389637018
3383291 50 18334856134143543059
397830 11 16414618484473032770
4015057 19 18114750429049012457
439807 62 18410295852445696231
5085150 59 18131910451226470526
5104073 3 18273219724229602728
59755656 520 16660370268399326867
6086070 43 18041542668512730533

> <PUBCHEM_SHAPE_MULTIPOLES>
717.39
17.8
2.88
1.68
7.5
0.2
0.04
9.6
2.44
-0.38
0.2
0.17
-0.03
-2.25

> <PUBCHEM_SHAPE_SELFOVERLAP>
1514.184

> <PUBCHEM_SHAPE_VOLUME>
399.3

> <PUBCHEM_COORDINATE_TYPE>
2
5
10

$$$$
