24814354
  -OEChem-08272012493D

 38 41  0     1  0  0  0  0  0999 V2000
    1.4643   -2.5261   -1.3042 O   0  0  0  0  0  0  0  0  0  0  0  0
    2.3383   -0.0256   -0.1973 O   0  0  0  0  0  0  0  0  0  0  0  0
   -3.0600    1.1578   -0.0682 O   0  0  0  0  0  0  0  0  0  0  0  0
   -3.1253   -1.4690    0.9113 O   0  0  0  0  0  0  0  0  0  0  0  0
   -2.4603   -2.3025   -1.1287 O   0  0  0  0  0  0  0  0  0  0  0  0
    1.9430   -2.4586    0.0424 C   0  0  2  0  0  0  0  0  0  0  0  0
    0.4996   -2.2155   -0.2779 C   0  0  1  0  0  0  0  0  0  0  0  0
    2.8031   -1.2708    0.3823 C   0  0  0  0  0  0  0  0  0  0  0  0
    0.0438   -0.7948   -0.1831 C   0  0  0  0  0  0  0  0  0  0  0  0
    0.9878    0.2481   -0.1383 C   0  0  0  0  0  0  0  0  0  0  0  0
    2.8950   -1.0926    1.9049 C   0  0  0  0  0  0  0  0  0  0  0  0
    4.2133   -1.4892   -0.1811 C   0  0  0  0  0  0  0  0  0  0  0  0
   -1.3122   -0.4543   -0.1535 C   0  0  0  0  0  0  0  0  0  0  0  0
    0.6002    1.6089   -0.0978 C   0  0  0  0  0  0  0  0  0  0  0  0
   -0.7796    1.9181   -0.0703 C   0  0  0  0  0  0  0  0  0  0  0  0
   -1.7199    0.8791   -0.0943 C   0  0  0  0  0  0  0  0  0  0  0  0
   -2.3333   -1.4982   -0.2010 C   0  0  0  0  0  0  0  0  0  0  0  0
    1.5249    2.6755   -0.0761 C   0  0  0  0  0  0  0  0  0  0  0  0
   -1.1934    3.2598   -0.0215 C   0  0  0  0  0  0  0  0  0  0  0  0
    1.0979    4.0033   -0.0290 C   0  0  0  0  0  0  0  0  0  0  0  0
   -0.2604    4.2951   -0.0013 C   0  0  0  0  0  0  0  0  0  0  0  0
   -4.1669   -2.4485    0.9828 C   0  0  0  0  0  0  0  0  0  0  0  0
    2.2327   -3.3829    0.5230 H   0  0  0  0  0  0  0  0  0  0  0  0
   -0.1757   -3.0129    0.0144 H   0  0  0  0  0  0  0  0  0  0  0  0
    1.9040   -0.9390    2.3470 H   0  0  0  0  0  0  0  0  0  0  0  0
    3.3390   -1.9707    2.3863 H   0  0  0  0  0  0  0  0  0  0  0  0
    3.4936   -0.2113    2.1613 H   0  0  0  0  0  0  0  0  0  0  0  0
    4.8652   -0.6385    0.0484 H   0  0  0  0  0  0  0  0  0  0  0  0
    4.1853   -1.5750   -1.2738 H   0  0  0  0  0  0  0  0  0  0  0  0
    4.6726   -2.4002    0.2174 H   0  0  0  0  0  0  0  0  0  0  0  0
    2.5957    2.4828   -0.0940 H   0  0  0  0  0  0  0  0  0  0  0  0
   -2.2483    3.5250    0.0005 H   0  0  0  0  0  0  0  0  0  0  0  0
    1.8276    4.8076   -0.0129 H   0  0  0  0  0  0  0  0  0  0  0  0
   -0.5948    5.3276    0.0360 H   0  0  0  0  0  0  0  0  0  0  0  0
   -3.5965    0.3526   -0.1300 H   0  0  0  0  0  0  0  0  0  0  0  0
   -4.8641   -2.3184    0.1497 H   0  0  0  0  0  0  0  0  0  0  0  0
   -3.7391   -3.4553    0.9756 H   0  0  0  0  0  0  0  0  0  0  0  0
   -4.7081   -2.3021    1.9212 H   0  0  0  0  0  0  0  0  0  0  0  0
  1  6  1  0  0  0  0
  1  7  1  0  0  0  0
  2  8  1  0  0  0  0
  2 10  1  0  0  0  0
  3 16  1  0  0  0  0
  3 35  1  0  0  0  0
  4 17  1  0  0  0  0
  4 22  1  0  0  0  0
  5 17  2  0  0  0  0
  6  7  1  0  0  0  0
  6  8  1  0  0  0  0
  6 23  1  0  0  0  0
  7  9  1  0  0  0  0
  7 24  1  0  0  0  0
  8 11  1  0  0  0  0
  8 12  1  0  0  0  0
  9 10  2  0  0  0  0
  9 13  1  0  0  0  0
 10 14  1  0  0  0  0
 11 25  1  0  0  0  0
 11 26  1  0  0  0  0
 11 27  1  0  0  0  0
 12 28  1  0  0  0  0
 12 29  1  0  0  0  0
 12 30  1  0  0  0  0
 13 16  2  0  0  0  0
 13 17  1  0  0  0  0
 14 15  1  0  0  0  0
 14 18  2  0  0  0  0
 15 16  1  0  0  0  0
 15 19  2  0  0  0  0
 18 20  1  0  0  0  0
 18 31  1  0  0  0  0
 19 21  1  0  0  0  0
 19 32  1  0  0  0  0
 20 21  2  0  0  0  0
 20 33  1  0  0  0  0
 21 34  1  0  0  0  0
 22 36  1  0  0  0  0
 22 37  1  0  0  0  0
 22 38  1  0  0  0  0
M  END
> <PUBCHEM_COMPOUND_CID>
24814354

> <PUBCHEM_CONFORMER_RMSD>
0.6

> <PUBCHEM_CONFORMER_DIVERSEORDER>
1
5
7
3
6
4
2

> <PUBCHEM_MMFF94_PARTIAL_CHARGES>
25
1 -0.3
10 0.08
13 0.09
16 0.08
17 0.63
18 -0.15
19 -0.15
2 -0.36
20 -0.15
21 -0.15
22 0.28
23 0.1
24 0.1
3 -0.53
31 0.15
32 0.15
33 0.15
34 0.15
35 0.45
4 -0.43
5 -0.57
6 -0.05
7 0.08
8 0.38
9 -0.03

> <PUBCHEM_EFFECTIVE_ROTOR_COUNT>
2.6

> <PUBCHEM_PHARMACOPHORE_FEATURES>
8
1 1 acceptor
1 2 acceptor
1 3 donor
1 5 acceptor
3 8 11 12 hydrophobe
6 14 15 18 19 20 21 rings
6 9 10 13 14 15 16 rings
7 1 2 6 7 8 9 10 rings

> <PUBCHEM_HEAVY_ATOM_COUNT>
22

> <PUBCHEM_ATOM_DEF_STEREO_COUNT>
0

> <PUBCHEM_ATOM_UDEF_STEREO_COUNT>
2

> <PUBCHEM_BOND_DEF_STEREO_COUNT>
0

> <PUBCHEM_BOND_UDEF_STEREO_COUNT>
0

> <PUBCHEM_ISOTOPIC_ATOM_COUNT>
0

> <PUBCHEM_COMPONENT_COUNT>
1

> <PUBCHEM_CACTVS_TAUTO_COUNT>
4

> <PUBCHEM_CONFORMER_ID>
017AA31200000001

> <PUBCHEM_MMFF94_ENERGY>
79.7069

> <PUBCHEM_FEATURE_SELFOVERLAP>
40.635

> <PUBCHEM_SHAPE_FINGERPRINT>
10319926 262 15895584434120663360
10382601 240 17976837698071655411
10411042 1 18410577300998858518
10906281 52 18268707216887811973
10967382 1 17978510072063104524
1100329 8 18336831892656932761
11578080 2 17272822499035624921
11680986 33 18339911697297795521
12173636 292 17473823927303861268
12553582 1 18338797818998730405
12730499 353 16320064487167827109
12788726 201 18116157657908485203
13140716 1 18410570682332533616
13583140 156 15801814659767229113
138480 1 14735074400783620717
14022347 108 18121234077524719051
14787075 74 17968666046287327498
14790565 3 17616269408521552613
14955137 171 18193849351881502466
15042514 8 18192998110268403731
16945 1 18267860575785722940
19591789 44 17184756234028544287
20510252 161 17765992796802744800
20645477 70 18120361323359886359
20739085 24 18193576651327604081
21041028 32 18409457994013832779
21421861 104 18191588764495898529
21524375 3 17260188220830961421
2334 1 18267017439208850573
23419403 2 17825360102642430895
23557571 272 18054792776286693718
238 59 17402281299796829351
2748010 2 18340189886582092876
3091708 16 9209549513652239761
3187 122 18120620670369429576
352729 6 17329710920754789212
58807428 26 17402042795683487201
5939293 188 18338797921988385091
7364860 26 18194404621831667436
81228 2 18195519290610190177
9709674 26 17981886333281006710

> <PUBCHEM_SHAPE_MULTIPOLES>
423.4
5.29
5.19
0.97
4.22
1.91
-0.25
-1.51
-0.5
-5.49
-0.55
0.55
0.39
0.76

> <PUBCHEM_SHAPE_SELFOVERLAP>
943.291

> <PUBCHEM_SHAPE_VOLUME>
226.3

> <PUBCHEM_COORDINATE_TYPE>
2
5
10

$$$$
