12019473
  -OEChem-08272012223D

 84 88  0     1  0  0  0  0  0999 V2000
    3.3372   -3.0577    0.9795 O   0  0  0  0  0  0  0  0  0  0  0  0
   -1.1595    3.1031   -0.3470 O   0  0  0  0  0  0  0  0  0  0  0  0
    4.5353   -0.7809   -2.0801 O   0  0  0  0  0  0  0  0  0  0  0  0
   -7.4432   -0.7864    0.4702 O   0  0  0  0  0  0  0  0  0  0  0  0
    1.2703   -0.7639   -0.1325 C   0  0  1  0  0  0  0  0  0  0  0  0
    0.6060    0.6279    0.3012 C   0  0  2  0  0  0  0  0  0  0  0  0
    2.7660   -0.7693    0.3053 C   0  0  2  0  0  0  0  0  0  0  0  0
    3.6374    0.4065   -0.2116 C   0  0  2  0  0  0  0  0  0  0  0  0
   -0.8880    0.6646   -0.2730 C   0  0  1  0  0  0  0  0  0  0  0  0
    4.9461    0.0679    0.5601 C   0  0  1  0  0  0  0  0  0  0  0  0
    1.4916    1.8103   -0.2177 C   0  0  0  0  0  0  0  0  0  0  0  0
    2.9784    1.7305    0.1991 C   0  0  0  0  0  0  0  0  0  0  0  0
    3.6654   -1.9957    0.0984 C   0  0  1  0  0  0  0  0  0  0  0  0
    0.4865   -1.8902    0.5880 C   0  0  0  0  0  0  0  0  0  0  0  0
   -1.6567   -0.6549   -0.0039 C   0  0  0  0  0  0  0  0  0  0  0  0
   -3.1741   -0.6759   -0.3702 C   0  0  2  0  0  0  0  0  0  0  0  0
    5.0868   -1.4649    0.3890 C   0  0  0  0  0  0  0  0  0  0  0  0
   -3.8635    0.5809    0.2694 C   0  0  1  0  0  0  0  0  0  0  0  0
   -1.7040    1.9001    0.1929 C   0  0  2  0  0  0  0  0  0  0  0  0
    1.1383   -1.0335   -1.6622 C   0  0  0  0  0  0  0  0  0  0  0  0
    0.5384    0.7911    1.8599 C   0  0  0  0  0  0  0  0  0  0  0  0
    3.9218    0.4391   -1.7323 C   0  0  0  0  0  0  0  0  0  0  0  0
   -3.1773    1.8682   -0.2127 C   0  0  0  0  0  0  0  0  0  0  0  0
   -1.0052   -1.7576    0.4313 C   0  0  0  0  0  0  0  0  0  0  0  0
   -5.4418    0.6449    0.2055 C   0  0  0  0  0  0  0  0  0  0  0  0
    6.2084    0.8234    0.1686 C   0  0  0  0  0  0  0  0  0  0  0  0
   -3.9035   -1.9482    0.1507 C   0  0  0  0  0  0  0  0  0  0  0  0
   -6.0329   -0.7153    0.6776 C   0  0  2  0  0  0  0  0  0  0  0  0
   -3.2120   -0.7156   -1.9197 C   0  0  0  0  0  0  0  0  0  0  0  0
   -5.4155   -1.9155   -0.0256 C   0  0  0  0  0  0  0  0  0  0  0  0
   -5.9965    1.0424   -1.1790 C   0  0  0  0  0  0  0  0  0  0  0  0
   -5.9468    1.7362    1.1939 C   0  0  0  0  0  0  0  0  0  0  0  0
    6.0065    2.3310    0.3219 C   0  0  0  0  0  0  0  0  0  0  0  0
    7.4001    0.3574    1.0050 C   0  0  0  0  0  0  0  0  0  0  0  0
    2.7200   -0.6820    1.4009 H   0  0  0  0  0  0  0  0  0  0  0  0
   -0.7958    0.7558   -1.3640 H   0  0  0  0  0  0  0  0  0  0  0  0
    4.7682    0.2551    1.6311 H   0  0  0  0  0  0  0  0  0  0  0  0
    1.1170    2.7637    0.1696 H   0  0  0  0  0  0  0  0  0  0  0  0
    1.4194    1.8831   -1.3082 H   0  0  0  0  0  0  0  0  0  0  0  0
    3.4681    2.5916   -0.2608 H   0  0  0  0  0  0  0  0  0  0  0  0
    3.0556    1.8760    1.2829 H   0  0  0  0  0  0  0  0  0  0  0  0
    3.6067   -2.4196   -0.9056 H   0  0  0  0  0  0  0  0  0  0  0  0
    0.7262   -1.9367    1.6565 H   0  0  0  0  0  0  0  0  0  0  0  0
    0.7674   -2.8604    0.1620 H   0  0  0  0  0  0  0  0  0  0  0  0
    5.7875   -1.7533   -0.4018 H   0  0  0  0  0  0  0  0  0  0  0  0
    5.4834   -1.9044    1.3130 H   0  0  0  0  0  0  0  0  0  0  0  0
   -3.6389    0.5095    1.3474 H   0  0  0  0  0  0  0  0  0  0  0  0
   -1.6745    1.9947    1.2824 H   0  0  0  0  0  0  0  0  0  0  0  0
    1.8875   -1.7423   -2.0230 H   0  0  0  0  0  0  0  0  0  0  0  0
    0.1730   -1.4768   -1.9302 H   0  0  0  0  0  0  0  0  0  0  0  0
    1.2033   -0.1248   -2.2606 H   0  0  0  0  0  0  0  0  0  0  0  0
    0.2899    1.8216    2.1380 H   0  0  0  0  0  0  0  0  0  0  0  0
   -0.2184    0.1479    2.3187 H   0  0  0  0  0  0  0  0  0  0  0  0
    1.4847    0.5766    2.3600 H   0  0  0  0  0  0  0  0  0  0  0  0
    4.6033    1.2529   -1.9970 H   0  0  0  0  0  0  0  0  0  0  0  0
    3.0386    0.5873   -2.3475 H   0  0  0  0  0  0  0  0  0  0  0  0
   -3.2721    1.9996   -1.2960 H   0  0  0  0  0  0  0  0  0  0  0  0
   -3.6519    2.7563    0.2180 H   0  0  0  0  0  0  0  0  0  0  0  0
   -1.5389   -2.6829    0.6206 H   0  0  0  0  0  0  0  0  0  0  0  0
    6.4753    0.6232   -0.8756 H   0  0  0  0  0  0  0  0  0  0  0  0
   -3.6953   -2.0809    1.2214 H   0  0  0  0  0  0  0  0  0  0  0  0
   -3.5267   -2.8446   -0.3589 H   0  0  0  0  0  0  0  0  0  0  0  0
   -5.8693   -0.8243    1.7572 H   0  0  0  0  0  0  0  0  0  0  0  0
   -2.6131   -1.5545   -2.2982 H   0  0  0  0  0  0  0  0  0  0  0  0
   -4.2142   -0.8624   -2.3207 H   0  0  0  0  0  0  0  0  0  0  0  0
   -2.8080    0.1890   -2.3826 H   0  0  0  0  0  0  0  0  0  0  0  0
   -5.6914   -1.9371   -1.0854 H   0  0  0  0  0  0  0  0  0  0  0  0
   -5.8459   -2.8351    0.3922 H   0  0  0  0  0  0  0  0  0  0  0  0
    2.6547   -3.6011    0.5530 H   0  0  0  0  0  0  0  0  0  0  0  0
   -5.8747    0.2595   -1.9271 H   0  0  0  0  0  0  0  0  0  0  0  0
   -7.0713    1.2555   -1.1276 H   0  0  0  0  0  0  0  0  0  0  0  0
   -5.5240    1.9520   -1.5618 H   0  0  0  0  0  0  0  0  0  0  0  0
   -5.6853    2.7461    0.8640 H   0  0  0  0  0  0  0  0  0  0  0  0
   -7.0387    1.7095    1.2887 H   0  0  0  0  0  0  0  0  0  0  0  0
   -5.5290    1.5881    2.1959 H   0  0  0  0  0  0  0  0  0  0  0  0
    5.4936    2.5879    1.2539 H   0  0  0  0  0  0  0  0  0  0  0  0
    5.4734    2.7597   -0.5281 H   0  0  0  0  0  0  0  0  0  0  0  0
    6.9755    2.8444    0.3398 H   0  0  0  0  0  0  0  0  0  0  0  0
    7.2147    0.5006    2.0752 H   0  0  0  0  0  0  0  0  0  0  0  0
    7.6276   -0.6996    0.8366 H   0  0  0  0  0  0  0  0  0  0  0  0
    8.3016    0.9229    0.7441 H   0  0  0  0  0  0  0  0  0  0  0  0
   -1.1667    3.0264   -1.3163 H   0  0  0  0  0  0  0  0  0  0  0  0
    4.7258   -0.7482   -3.0328 H   0  0  0  0  0  0  0  0  0  0  0  0
   -7.6120   -0.8745   -0.4828 H   0  0  0  0  0  0  0  0  0  0  0  0
  1 13  1  0  0  0  0
  1 69  1  0  0  0  0
  2 19  1  0  0  0  0
  2 82  1  0  0  0  0
  3 22  1  0  0  0  0
  3 83  1  0  0  0  0
  4 28  1  0  0  0  0
  4 84  1  0  0  0  0
  5  6  1  0  0  0  0
  5  7  1  0  0  0  0
  5 14  1  0  0  0  0
  5 20  1  0  0  0  0
  6  9  1  0  0  0  0
  6 11  1  0  0  0  0
  6 21  1  0  0  0  0
  7  8  1  0  0  0  0
  7 13  1  0  0  0  0
  7 35  1  0  0  0  0
  8 10  1  0  0  0  0
  8 12  1  0  0  0  0
  8 22  1  0  0  0  0
  9 15  1  0  0  0  0
  9 19  1  0  0  0  0
  9 36  1  0  0  0  0
 10 17  1  0  0  0  0
 10 26  1  0  0  0  0
 10 37  1  0  0  0  0
 11 12  1  0  0  0  0
 11 38  1  0  0  0  0
 11 39  1  0  0  0  0
 12 40  1  0  0  0  0
 12 41  1  0  0  0  0
 13 17  1  0  0  0  0
 13 42  1  0  0  0  0
 14 24  1  0  0  0  0
 14 43  1  0  0  0  0
 14 44  1  0  0  0  0
 15 16  1  0  0  0  0
 15 24  2  0  0  0  0
 16 18  1  0  0  0  0
 16 27  1  0  0  0  0
 16 29  1  0  0  0  0
 17 45  1  0  0  0  0
 17 46  1  0  0  0  0
 18 23  1  0  0  0  0
 18 25  1  0  0  0  0
 18 47  1  0  0  0  0
 19 23  1  0  0  0  0
 19 48  1  0  0  0  0
 20 49  1  0  0  0  0
 20 50  1  0  0  0  0
 20 51  1  0  0  0  0
 21 52  1  0  0  0  0
 21 53  1  0  0  0  0
 21 54  1  0  0  0  0
 22 55  1  0  0  0  0
 22 56  1  0  0  0  0
 23 57  1  0  0  0  0
 23 58  1  0  0  0  0
 24 59  1  0  0  0  0
 25 28  1  0  0  0  0
 25 31  1  0  0  0  0
 25 32  1  0  0  0  0
 26 33  1  0  0  0  0
 26 34  1  0  0  0  0
 26 60  1  0  0  0  0
 27 30  1  0  0  0  0
 27 61  1  0  0  0  0
 27 62  1  0  0  0  0
 28 30  1  0  0  0  0
 28 63  1  0  0  0  0
 29 64  1  0  0  0  0
 29 65  1  0  0  0  0
 29 66  1  0  0  0  0
 30 67  1  0  0  0  0
 30 68  1  0  0  0  0
 31 70  1  0  0  0  0
 31 71  1  0  0  0  0
 31 72  1  0  0  0  0
 32 73  1  0  0  0  0
 32 74  1  0  0  0  0
 32 75  1  0  0  0  0
 33 76  1  0  0  0  0
 33 77  1  0  0  0  0
 33 78  1  0  0  0  0
 34 79  1  0  0  0  0
 34 80  1  0  0  0  0
 34 81  1  0  0  0  0
M  END
> <PUBCHEM_COMPOUND_CID>
12019473

> <PUBCHEM_CONFORMER_RMSD>
0.8

> <PUBCHEM_CONFORMER_DIVERSEORDER>
1

> <PUBCHEM_MMFF94_PARTIAL_CHARGES>
18
1 -0.68
13 0.28
14 0.14
15 -0.28
16 0.14
19 0.28
2 -0.68
22 0.28
24 -0.29
28 0.28
3 -0.68
4 -0.68
59 0.15
69 0.4
82 0.4
83 0.4
84 0.4
9 0.14

> <PUBCHEM_EFFECTIVE_ROTOR_COUNT>
4.4

> <PUBCHEM_PHARMACOPHORE_FEATURES>
15
1 1 acceptor
1 1 donor
1 2 acceptor
1 2 donor
1 3 acceptor
1 3 donor
1 4 acceptor
1 4 donor
3 25 31 32 hydrophobe
3 26 33 34 hydrophobe
5 7 8 10 13 17 rings
6 16 18 25 27 28 30 rings
6 5 6 7 8 11 12 rings
6 5 6 9 14 15 24 rings
6 9 15 16 18 19 23 rings

> <PUBCHEM_HEAVY_ATOM_COUNT>
34

> <PUBCHEM_ATOM_DEF_STEREO_COUNT>
11

> <PUBCHEM_ATOM_UDEF_STEREO_COUNT>
0

> <PUBCHEM_BOND_DEF_STEREO_COUNT>
0

> <PUBCHEM_BOND_UDEF_STEREO_COUNT>
0

> <PUBCHEM_ISOTOPIC_ATOM_COUNT>
0

> <PUBCHEM_COMPONENT_COUNT>
1

> <PUBCHEM_CACTVS_TAUTO_COUNT>
1

> <PUBCHEM_CONFORMER_ID>
00B7671100000001

> <PUBCHEM_MMFF94_ENERGY>
171.5485

> <PUBCHEM_FEATURE_SELFOVERLAP>
76.219

> <PUBCHEM_SHAPE_FINGERPRINT>
10 15 18113900489396410984
10050765 1 18192710043012687896
10906281 52 18341346551429087652
11135926 11 18336254682916327046
11963148 33 18334570278268743050
12107183 9 17688588260427887867
12166972 35 17385728005995651284
12236239 1 18273214183652906739
12422481 6 18059577940932016407
12516196 113 18343584057417863416
12788726 201 17489594420001511176
13073987 5 18409729521566646251
13140716 1 18120937471541501722
13224815 77 18272090491353973006
13402501 40 18412544331547918217
13533116 47 18260549966334231258
13782708 43 17346316042564872079
13811026 1 18412822473978192750
14251764 18 18410854390681305098
14341114 176 18410013212815157143
14394314 77 18411704249299961809
14790565 3 18411141307861718817
14849402 71 18337956817142391352
14856354 85 18260275183116871943
15183329 4 18409729556179618001
15196674 1 18410292510180021755
15788980 27 17530966860716551103
16110190 28 18343022194549720493
17349148 13 17531253841677765982
17492 89 18193835934208893746
18608769 82 18337670927144450683
19319366 153 18040712571667643458
19377110 9 18335135384542523506
20511986 3 18261098673621990015
21033648 29 17240752965646321757
21130935 74 18342740684802536219
21267235 1 18410016524182136355
21279426 13 18337108956548885959
22149856 69 18264225659612399121
23402539 116 18410569612959230989
23522609 53 18120406248443924565
23559900 14 18340198686880587233
24771293 8 18412265068812297916
3004659 81 18187083923697085306
34797466 226 17775011193274245988
350125 39 18411980264850434441
3680242 22 18336835182248115987
4073 2 18187931741071158914
4093350 32 17346322574792988318
4340502 62 18334011705624616754
5104073 3 18340767044197327953
59755656 215 18408602552281531574
6086070 43 17131534116837647473
6328613 192 18343584010806284641

> <PUBCHEM_SHAPE_MULTIPOLES>
676.23
17.11
2.59
1.31
2.29
0.1
0.44
1.47
-2.21
-0.18
-0.32
-0.29
-0.1
-0.07

> <PUBCHEM_SHAPE_SELFOVERLAP>
1437.833

> <PUBCHEM_SHAPE_VOLUME>
373.8

> <PUBCHEM_COORDINATE_TYPE>
2
5
10

$$$$
