21594201
  -OEChem-08272013353D

 89 93  0     1  0  0  0  0  0999 V2000
   -2.4146   -0.9222   -1.9863 O   0  0  0  0  0  0  0  0  0  0  0  0
   -1.9042   -2.4654    2.0899 O   0  0  0  0  0  0  0  0  0  0  0  0
   -1.8438    2.1174   -1.8458 O   0  0  0  0  0  0  0  0  0  0  0  0
    6.0960    0.8592    0.0224 O   0  0  0  0  0  0  0  0  0  0  0  0
    6.4585    2.6025    1.4942 O   0  0  0  0  0  0  0  0  0  0  0  0
   -0.0655   -1.3694   -0.2316 C   0  0  1  0  0  0  0  0  0  0  0  0
   -1.5160   -0.7905    0.3204 C   0  0  1  0  0  0  0  0  0  0  0  0
    0.7740   -0.0989   -0.7202 C   0  0  1  0  0  0  0  0  0  0  0  0
   -2.2904   -0.0472   -0.8479 C   0  0  2  0  0  0  0  0  0  0  0  0
    2.3272   -0.3472   -0.9766 C   0  0  2  0  0  0  0  0  0  0  0  0
   -3.7636    0.4068   -0.5156 C   0  0  1  0  0  0  0  0  0  0  0  0
    2.8750   -0.9945    0.3559 C   0  0  1  0  0  0  0  0  0  0  0  0
   -4.6320   -0.7823    0.0386 C   0  0  1  0  0  0  0  0  0  0  0  0
    0.7118   -2.1647    0.8717 C   0  0  0  0  0  0  0  0  0  0  0  0
   -2.4521   -1.9220    0.8858 C   0  0  2  0  0  0  0  0  0  0  0  0
    0.0291    0.6455   -1.8496 C   0  0  0  0  0  0  0  0  0  0  0  0
    2.2169   -2.3525    0.6234 C   0  0  0  0  0  0  0  0  0  0  0  0
   -3.8910   -1.4637    1.2118 C   0  0  0  0  0  0  0  0  0  0  0  0
    4.4271   -0.9017    0.5534 C   0  0  0  0  0  0  0  0  0  0  0  0
   -1.4036    1.0213   -1.4943 C   0  0  0  0  0  0  0  0  0  0  0  0
    3.1096    0.9881   -1.2364 C   0  0  0  0  0  0  0  0  0  0  0  0
   -0.2558   -2.4142   -1.3792 C   0  0  0  0  0  0  0  0  0  0  0  0
   -3.8613    1.6664    0.3869 C   0  0  0  0  0  0  0  0  0  0  0  0
   -1.2338    0.2204    1.4886 C   0  0  0  0  0  0  0  0  0  0  0  0
   -6.0376   -0.2987    0.5016 C   0  0  0  0  0  0  0  0  0  0  0  0
    2.5338   -1.2033   -2.2520 C   0  0  0  0  0  0  0  0  0  0  0  0
   -5.2973    2.1275    0.7113 C   0  0  0  0  0  0  0  0  0  0  0  0
    4.8178    0.6189    0.6093 C   0  0  2  0  0  0  0  0  0  0  0  0
    3.7753    1.5701    0.0047 C   0  0  0  0  0  0  0  0  0  0  0  0
   -6.0501    0.9578    1.3615 C   0  0  0  0  0  0  0  0  0  0  0  0
   -4.9313   -1.8518   -1.0472 C   0  0  0  0  0  0  0  0  0  0  0  0
    5.2243   -1.6849   -0.5060 C   0  0  0  0  0  0  0  0  0  0  0  0
    4.8373   -1.5126    1.9208 C   0  0  0  0  0  0  0  0  0  0  0  0
   -5.2941    3.3730    1.6167 C   0  0  0  0  0  0  0  0  0  0  0  0
   -6.0110    2.5053   -0.6029 C   0  0  0  0  0  0  0  0  0  0  0  0
    6.8116    1.8865    0.5670 C   0  0  0  0  0  0  0  0  0  0  0  0
    8.1238    2.0208   -0.1444 C   0  0  0  0  0  0  0  0  0  0  0  0
    0.7779    0.6101    0.1175 H   0  0  0  0  0  0  0  0  0  0  0  0
   -4.2112    0.6928   -1.4771 H   0  0  0  0  0  0  0  0  0  0  0  0
    2.4892   -0.3671    1.1777 H   0  0  0  0  0  0  0  0  0  0  0  0
    0.6216   -1.6873    1.8494 H   0  0  0  0  0  0  0  0  0  0  0  0
    0.2676   -3.1608    0.9975 H   0  0  0  0  0  0  0  0  0  0  0  0
   -2.5165   -2.7527    0.1826 H   0  0  0  0  0  0  0  0  0  0  0  0
    0.5297    1.5893   -2.0810 H   0  0  0  0  0  0  0  0  0  0  0  0
   -0.0030    0.0764   -2.7816 H   0  0  0  0  0  0  0  0  0  0  0  0
    2.4077   -3.0664   -0.1812 H   0  0  0  0  0  0  0  0  0  0  0  0
    2.6243   -2.8161    1.5273 H   0  0  0  0  0  0  0  0  0  0  0  0
   -4.4622   -2.3415    1.5466 H   0  0  0  0  0  0  0  0  0  0  0  0
   -3.8786   -0.8102    2.0911 H   0  0  0  0  0  0  0  0  0  0  0  0
    3.9039    0.8298   -1.9776 H   0  0  0  0  0  0  0  0  0  0  0  0
    2.4707    1.7558   -1.6759 H   0  0  0  0  0  0  0  0  0  0  0  0
   -1.1415   -3.0359   -1.2384 H   0  0  0  0  0  0  0  0  0  0  0  0
    0.5639   -3.1355   -1.4286 H   0  0  0  0  0  0  0  0  0  0  0  0
   -0.3227   -1.9691   -2.3729 H   0  0  0  0  0  0  0  0  0  0  0  0
   -3.3274    2.5047   -0.0703 H   0  0  0  0  0  0  0  0  0  0  0  0
   -3.3746    1.4921    1.3446 H   0  0  0  0  0  0  0  0  0  0  0  0
   -1.0804    1.2410    1.1235 H   0  0  0  0  0  0  0  0  0  0  0  0
   -2.0407    0.2551    2.2229 H   0  0  0  0  0  0  0  0  0  0  0  0
   -0.3486   -0.0244    2.0763 H   0  0  0  0  0  0  0  0  0  0  0  0
   -6.5304   -1.1016    1.0673 H   0  0  0  0  0  0  0  0  0  0  0  0
   -6.6812   -0.1361   -0.3721 H   0  0  0  0  0  0  0  0  0  0  0  0
    3.5725   -1.2159   -2.5874 H   0  0  0  0  0  0  0  0  0  0  0  0
    1.9676   -0.8025   -3.0981 H   0  0  0  0  0  0  0  0  0  0  0  0
    2.2589   -2.2479   -2.1335 H   0  0  0  0  0  0  0  0  0  0  0  0
    4.8701    0.8939    1.6727 H   0  0  0  0  0  0  0  0  0  0  0  0
    4.2375    2.5278   -0.2624 H   0  0  0  0  0  0  0  0  0  0  0  0
    3.0013    1.7972    0.7484 H   0  0  0  0  0  0  0  0  0  0  0  0
   -7.0912    1.2425    1.5610 H   0  0  0  0  0  0  0  0  0  0  0  0
   -5.6071    0.7336    2.3400 H   0  0  0  0  0  0  0  0  0  0  0  0
   -5.6766   -2.5719   -0.6874 H   0  0  0  0  0  0  0  0  0  0  0  0
   -4.0613   -2.4435   -1.3362 H   0  0  0  0  0  0  0  0  0  0  0  0
   -5.3369   -1.3871   -1.9532 H   0  0  0  0  0  0  0  0  0  0  0  0
   -2.9078   -0.4614   -2.6866 H   0  0  0  0  0  0  0  0  0  0  0  0
    5.2780   -1.1531   -1.4579 H   0  0  0  0  0  0  0  0  0  0  0  0
    4.7950   -2.6764   -0.6821 H   0  0  0  0  0  0  0  0  0  0  0  0
    6.2633   -1.8356   -0.1880 H   0  0  0  0  0  0  0  0  0  0  0  0
    4.7497   -2.6043    1.9229 H   0  0  0  0  0  0  0  0  0  0  0  0
    4.2180   -1.1207    2.7355 H   0  0  0  0  0  0  0  0  0  0  0  0
    5.8825   -1.2789    2.1576 H   0  0  0  0  0  0  0  0  0  0  0  0
   -2.4773   -3.1989    2.3709 H   0  0  0  0  0  0  0  0  0  0  0  0
   -4.7646    4.2070    1.1431 H   0  0  0  0  0  0  0  0  0  0  0  0
   -6.3146    3.7032    1.8398 H   0  0  0  0  0  0  0  0  0  0  0  0
   -4.7971    3.1602    2.5696 H   0  0  0  0  0  0  0  0  0  0  0  0
   -5.4909    3.3338   -1.0987 H   0  0  0  0  0  0  0  0  0  0  0  0
   -6.0815    1.6956   -1.3321 H   0  0  0  0  0  0  0  0  0  0  0  0
   -7.0354    2.8416   -0.4025 H   0  0  0  0  0  0  0  0  0  0  0  0
    7.9512    2.2441   -1.2002 H   0  0  0  0  0  0  0  0  0  0  0  0
    8.6935    2.8432    0.2974 H   0  0  0  0  0  0  0  0  0  0  0  0
    8.7006    1.0990   -0.0347 H   0  0  0  0  0  0  0  0  0  0  0  0
  1  9  1  0  0  0  0
  1 73  1  0  0  0  0
  2 15  1  0  0  0  0
  2 80  1  0  0  0  0
  3 20  2  0  0  0  0
  4 28  1  0  0  0  0
  4 36  1  0  0  0  0
  5 36  2  0  0  0  0
  6  7  1  0  0  0  0
  6  8  1  0  0  0  0
  6 14  1  0  0  0  0
  6 22  1  0  0  0  0
  7  9  1  0  0  0  0
  7 15  1  0  0  0  0
  7 24  1  0  0  0  0
  8 10  1  0  0  0  0
  8 16  1  0  0  0  0
  8 38  1  0  0  0  0
  9 11  1  0  0  0  0
  9 20  1  0  0  0  0
 10 12  1  0  0  0  0
 10 21  1  0  0  0  0
 10 26  1  0  0  0  0
 11 13  1  0  0  0  0
 11 23  1  0  0  0  0
 11 39  1  0  0  0  0
 12 17  1  0  0  0  0
 12 19  1  0  0  0  0
 12 40  1  0  0  0  0
 13 18  1  0  0  0  0
 13 25  1  0  0  0  0
 13 31  1  0  0  0  0
 14 17  1  0  0  0  0
 14 41  1  0  0  0  0
 14 42  1  0  0  0  0
 15 18  1  0  0  0  0
 15 43  1  0  0  0  0
 16 20  1  0  0  0  0
 16 44  1  0  0  0  0
 16 45  1  0  0  0  0
 17 46  1  0  0  0  0
 17 47  1  0  0  0  0
 18 48  1  0  0  0  0
 18 49  1  0  0  0  0
 19 28  1  0  0  0  0
 19 32  1  0  0  0  0
 19 33  1  0  0  0  0
 21 29  1  0  0  0  0
 21 50  1  0  0  0  0
 21 51  1  0  0  0  0
 22 52  1  0  0  0  0
 22 53  1  0  0  0  0
 22 54  1  0  0  0  0
 23 27  1  0  0  0  0
 23 55  1  0  0  0  0
 23 56  1  0  0  0  0
 24 57  1  0  0  0  0
 24 58  1  0  0  0  0
 24 59  1  0  0  0  0
 25 30  1  0  0  0  0
 25 60  1  0  0  0  0
 25 61  1  0  0  0  0
 26 62  1  0  0  0  0
 26 63  1  0  0  0  0
 26 64  1  0  0  0  0
 27 30  1  0  0  0  0
 27 34  1  0  0  0  0
 27 35  1  0  0  0  0
 28 29  1  0  0  0  0
 28 65  1  0  0  0  0
 29 66  1  0  0  0  0
 29 67  1  0  0  0  0
 30 68  1  0  0  0  0
 30 69  1  0  0  0  0
 31 70  1  0  0  0  0
 31 71  1  0  0  0  0
 31 72  1  0  0  0  0
 32 74  1  0  0  0  0
 32 75  1  0  0  0  0
 32 76  1  0  0  0  0
 33 77  1  0  0  0  0
 33 78  1  0  0  0  0
 33 79  1  0  0  0  0
 34 81  1  0  0  0  0
 34 82  1  0  0  0  0
 34 83  1  0  0  0  0
 35 84  1  0  0  0  0
 35 85  1  0  0  0  0
 35 86  1  0  0  0  0
 36 37  1  0  0  0  0
 37 87  1  0  0  0  0
 37 88  1  0  0  0  0
 37 89  1  0  0  0  0
M  END
> <PUBCHEM_COMPOUND_CID>
21594201

> <PUBCHEM_CONFORMER_RMSD>
0.8

> <PUBCHEM_CONFORMER_DIVERSEORDER>
1

> <PUBCHEM_MMFF94_PARTIAL_CHARGES>
14
1 -0.68
15 0.28
16 0.06
2 -0.68
20 0.45
28 0.28
3 -0.57
36 0.66
37 0.06
4 -0.43
5 -0.57
73 0.4
80 0.4
9 0.34

> <PUBCHEM_EFFECTIVE_ROTOR_COUNT>
4.6

> <PUBCHEM_PHARMACOPHORE_FEATURES>
13
1 1 acceptor
1 1 donor
1 2 acceptor
1 2 donor
1 3 acceptor
1 5 acceptor
3 19 32 33 hydrophobe
3 27 34 35 hydrophobe
6 10 12 19 21 28 29 rings
6 11 13 23 25 27 30 rings
6 6 7 8 9 16 20 rings
6 6 8 10 12 14 17 rings
6 7 9 11 13 15 18 rings

> <PUBCHEM_HEAVY_ATOM_COUNT>
37

> <PUBCHEM_ATOM_DEF_STEREO_COUNT>
10

> <PUBCHEM_ATOM_UDEF_STEREO_COUNT>
0

> <PUBCHEM_BOND_DEF_STEREO_COUNT>
0

> <PUBCHEM_BOND_UDEF_STEREO_COUNT>
0

> <PUBCHEM_ISOTOPIC_ATOM_COUNT>
0

> <PUBCHEM_COMPONENT_COUNT>
1

> <PUBCHEM_CACTVS_TAUTO_COUNT>
2

> <PUBCHEM_CONFORMER_ID>
0149805900000001

> <PUBCHEM_MMFF94_ENERGY>
195.8562

> <PUBCHEM_FEATURE_SELFOVERLAP>
66.052

> <PUBCHEM_SHAPE_FINGERPRINT>
10 15 18412549808211411025
10369192 42 17988644124717984340
10554248 39 16415203317453359756
11578080 2 17703237209070179207
11991303 11 16415471692373688356
12035758 1 17531257166457122595
12236239 1 18272368672201946630
12422481 6 17822574885244238637
12596602 18 18342176652458638986
12633257 1 17531258252936389151
13140716 1 17823151175297542159
13782708 43 10881405335230111672
13811026 1 17967525775040006839
13911987 19 15554450682931049613
14341114 176 17967248685578248662
14394314 77 18409451366774865497
14395042 24 17823151176231700171
14849402 71 18335704996370821164
15131766 46 17702088361301299904
15510800 12 12468622891054365984
15840311 113 18194692471474054737
16112460 7 18260831479849109672
17349148 13 16660372454321532167
17980427 23 18408889538255171437
20511986 3 18334287639971929891
21033648 144 18260821592570786591
21033648 29 18270978902267689359
21130935 74 18186519877941909530
21756936 100 18201433722543277270
21792934 111 17676204633633480133
22122407 14 18131075982225404512
23559900 14 17914629250033631079
23569914 2 17197649863301647497
24771293 8 18261392295573329388
2838139 119 18059289985150615408
3383291 50 17168433756893192203
34797466 226 17775011163462617527
350125 39 17823141137605770942
3633792 109 18041548162925317487
3680242 22 17822578204847815536
392239 28 17530960319502360832
4073 2 18187652431253844098
4093350 32 17989211426427889678
4098825 35 17775290456490498998
4144715 1 18410867546388211811
44802255 64 17275107253569149597
4616759 239 18335415828542467504
5104073 3 18186520990379993962
999808 66 12685087090340041752

> <PUBCHEM_SHAPE_MULTIPOLES>
732.1
17.3
3.12
1.85
13.38
0.98
-0.24
12.88
5.15
-0.64
0.78
-0.27
-0.22
-0.21

> <PUBCHEM_SHAPE_SELFOVERLAP>
1545.557

> <PUBCHEM_SHAPE_VOLUME>
405.3

> <PUBCHEM_COORDINATE_TYPE>
2
5
10

$$$$
