21672546
  -OEChem-08272012363D

 89 93  0     1  0  0  0  0  0999 V2000
   -4.1040   -3.2231   -0.6083 O   0  0  0  0  0  0  0  0  0  0  0  0
   -0.0229    3.3040    0.1986 O   0  0  0  0  0  0  0  0  0  0  0  0
    6.5082   -0.2335    0.0720 O   0  0  0  0  0  0  0  0  0  0  0  0
    5.1324   -2.6719    0.1029 O   0  0  0  0  0  0  0  0  0  0  0  0
    7.0097   -0.7146   -2.1312 O   0  0  0  0  0  0  0  0  0  0  0  0
   -2.2150   -0.7052    0.3239 C   0  0  1  0  0  0  0  0  0  0  0  0
   -1.6168    0.6731   -0.2317 C   0  0  2  0  0  0  0  0  0  0  0  0
   -3.6900   -0.8469   -0.1573 C   0  0  2  0  0  0  0  0  0  0  0  0
   -4.6476    0.3190    0.2074 C   0  0  2  0  0  0  0  0  0  0  0  0
   -0.1500    0.8597    0.3822 C   0  0  1  0  0  0  0  0  0  0  0  0
   -2.5886    1.8457    0.1327 C   0  0  0  0  0  0  0  0  0  0  0  0
   -5.9054   -0.1780   -0.5644 C   0  0  1  0  0  0  0  0  0  0  0  0
   -4.0519    1.6321   -0.3194 C   0  0  0  0  0  0  0  0  0  0  0  0
   -4.5247   -2.0997    0.1485 C   0  0  1  0  0  0  0  0  0  0  0  0
    2.2036   -0.3218    0.6960 C   0  0  2  0  0  0  0  0  0  0  0  0
   -1.3416   -1.8488   -0.2511 C   0  0  0  0  0  0  0  0  0  0  0  0
    0.7030   -0.4309    0.2782 C   0  0  0  0  0  0  0  0  0  0  0  0
   -5.9642   -1.6906   -0.2361 C   0  0  0  0  0  0  0  0  0  0  0  0
    2.8463    0.9028   -0.0445 C   0  0  1  0  0  0  0  0  0  0  0  0
    0.6118    2.0860   -0.1868 C   0  0  2  0  0  0  0  0  0  0  0  0
   -2.1249   -0.8087    1.8767 C   0  0  0  0  0  0  0  0  0  0  0  0
   -1.5000    0.6800   -1.7959 C   0  0  0  0  0  0  0  0  0  0  0  0
    2.0654    2.1876    0.2734 C   0  0  0  0  0  0  0  0  0  0  0  0
    0.1330   -1.6099   -0.0612 C   0  0  0  0  0  0  0  0  0  0  0  0
   -4.9891    0.4895    1.7068 C   0  0  0  0  0  0  0  0  0  0  0  0
    4.4132    1.0713    0.0757 C   0  0  0  0  0  0  0  0  0  0  0  0
   -7.2224    0.5359   -0.2940 C   0  0  0  0  0  0  0  0  0  0  0  0
    3.0250   -1.5885    0.3298 C   0  0  0  0  0  0  0  0  0  0  0  0
    5.1106   -0.2875   -0.2282 C   0  0  2  0  0  0  0  0  0  0  0  0
    4.5271   -1.4572    0.5579 C   0  0  2  0  0  0  0  0  0  0  0  0
    2.1832   -0.2065    2.2413 C   0  0  0  0  0  0  0  0  0  0  0  0
    4.7715    1.4561    1.5410 C   0  0  0  0  0  0  0  0  0  0  0  0
    4.9892    2.2006   -0.8063 C   0  0  0  0  0  0  0  0  0  0  0  0
   -7.2773    1.8709   -1.0367 C   0  0  0  0  0  0  0  0  0  0  0  0
   -8.4074   -0.3443   -0.6916 C   0  0  0  0  0  0  0  0  0  0  0  0
    7.3435   -0.4679   -0.9801 C   0  0  0  0  0  0  0  0  0  0  0  0
    8.7671   -0.3788   -0.5199 C   0  0  0  0  0  0  0  0  0  0  0  0
   -3.6090   -0.8693   -1.2542 H   0  0  0  0  0  0  0  0  0  0  0  0
   -0.2841    1.0613    1.4542 H   0  0  0  0  0  0  0  0  0  0  0  0
   -2.5603    2.0356    1.2110 H   0  0  0  0  0  0  0  0  0  0  0  0
   -2.2566    2.7756   -0.3408 H   0  0  0  0  0  0  0  0  0  0  0  0
   -5.7004   -0.1082   -1.6443 H   0  0  0  0  0  0  0  0  0  0  0  0
   -4.1014    1.6634   -1.4141 H   0  0  0  0  0  0  0  0  0  0  0  0
   -4.6270    2.4920    0.0380 H   0  0  0  0  0  0  0  0  0  0  0  0
   -4.4847   -2.3766    1.2055 H   0  0  0  0  0  0  0  0  0  0  0  0
   -1.5981   -2.7906    0.2512 H   0  0  0  0  0  0  0  0  0  0  0  0
   -1.5344   -2.0098   -1.3182 H   0  0  0  0  0  0  0  0  0  0  0  0
   -6.3462   -2.2693   -1.0844 H   0  0  0  0  0  0  0  0  0  0  0  0
   -6.6048   -1.8936    0.6295 H   0  0  0  0  0  0  0  0  0  0  0  0
    2.6854    0.7162   -1.1200 H   0  0  0  0  0  0  0  0  0  0  0  0
    0.6201    2.0538   -1.2810 H   0  0  0  0  0  0  0  0  0  0  0  0
   -1.1515   -1.1752    2.2200 H   0  0  0  0  0  0  0  0  0  0  0  0
   -2.8564   -1.5088    2.2876 H   0  0  0  0  0  0  0  0  0  0  0  0
   -2.2543    0.1531    2.3734 H   0  0  0  0  0  0  0  0  0  0  0  0
   -0.6904    0.0414   -2.1614 H   0  0  0  0  0  0  0  0  0  0  0  0
   -2.4130    0.3579   -2.3003 H   0  0  0  0  0  0  0  0  0  0  0  0
   -1.3017    1.6902   -2.1719 H   0  0  0  0  0  0  0  0  0  0  0  0
    2.0979    2.4522    1.3346 H   0  0  0  0  0  0  0  0  0  0  0  0
    2.5095    3.0464   -0.2419 H   0  0  0  0  0  0  0  0  0  0  0  0
    0.7248   -2.5160   -0.1356 H   0  0  0  0  0  0  0  0  0  0  0  0
   -4.1336    0.7879    2.3089 H   0  0  0  0  0  0  0  0  0  0  0  0
   -5.7122    1.2979    1.8592 H   0  0  0  0  0  0  0  0  0  0  0  0
   -5.4058   -0.4166    2.1557 H   0  0  0  0  0  0  0  0  0  0  0  0
   -7.3644    0.7388    0.7709 H   0  0  0  0  0  0  0  0  0  0  0  0
    2.6702   -2.4570    0.9020 H   0  0  0  0  0  0  0  0  0  0  0  0
    2.8630   -1.8471   -0.7269 H   0  0  0  0  0  0  0  0  0  0  0  0
    4.9458   -0.4985   -1.2936 H   0  0  0  0  0  0  0  0  0  0  0  0
    4.7782   -1.3897    1.6195 H   0  0  0  0  0  0  0  0  0  0  0  0
    3.1274   -0.4655    2.7184 H   0  0  0  0  0  0  0  0  0  0  0  0
    1.4618   -0.9175    2.6673 H   0  0  0  0  0  0  0  0  0  0  0  0
    1.8846    0.7815    2.5996 H   0  0  0  0  0  0  0  0  0  0  0  0
   -4.7182   -3.9517   -0.4148 H   0  0  0  0  0  0  0  0  0  0  0  0
    5.8232    1.7671    1.6012 H   0  0  0  0  0  0  0  0  0  0  0  0
    4.1928    2.3128    1.8978 H   0  0  0  0  0  0  0  0  0  0  0  0
    4.6768    0.6539    2.2662 H   0  0  0  0  0  0  0  0  0  0  0  0
    4.7032    2.0515   -1.8531 H   0  0  0  0  0  0  0  0  0  0  0  0
    4.6371    3.1891   -0.4959 H   0  0  0  0  0  0  0  0  0  0  0  0
    6.0835    2.2289   -0.7648 H   0  0  0  0  0  0  0  0  0  0  0  0
    0.4393    4.0341   -0.2472 H   0  0  0  0  0  0  0  0  0  0  0  0
   -7.0422    1.7535   -2.0999 H   0  0  0  0  0  0  0  0  0  0  0  0
   -6.5969    2.6072   -0.6087 H   0  0  0  0  0  0  0  0  0  0  0  0
   -8.2806    2.3072   -0.9696 H   0  0  0  0  0  0  0  0  0  0  0  0
   -8.3138   -0.6995   -1.7238 H   0  0  0  0  0  0  0  0  0  0  0  0
   -8.5315   -1.2089   -0.0335 H   0  0  0  0  0  0  0  0  0  0  0  0
   -9.3437    0.2223   -0.6263 H   0  0  0  0  0  0  0  0  0  0  0  0
    4.7692   -3.3993    0.6364 H   0  0  0  0  0  0  0  0  0  0  0  0
    8.9567   -1.1346    0.2463 H   0  0  0  0  0  0  0  0  0  0  0  0
    9.4342   -0.5653   -1.3664 H   0  0  0  0  0  0  0  0  0  0  0  0
    8.9687    0.6228   -0.1318 H   0  0  0  0  0  0  0  0  0  0  0  0
  1 14  1  0  0  0  0
  1 72  1  0  0  0  0
  2 20  1  0  0  0  0
  2 79  1  0  0  0  0
  3 29  1  0  0  0  0
  3 36  1  0  0  0  0
  4 30  1  0  0  0  0
  4 86  1  0  0  0  0
  5 36  2  0  0  0  0
  6  7  1  0  0  0  0
  6  8  1  0  0  0  0
  6 16  1  0  0  0  0
  6 21  1  0  0  0  0
  7 10  1  0  0  0  0
  7 11  1  0  0  0  0
  7 22  1  0  0  0  0
  8  9  1  0  0  0  0
  8 14  1  0  0  0  0
  8 38  1  0  0  0  0
  9 12  1  0  0  0  0
  9 13  1  0  0  0  0
  9 25  1  0  0  0  0
 10 17  1  0  0  0  0
 10 20  1  0  0  0  0
 10 39  1  0  0  0  0
 11 13  1  0  0  0  0
 11 40  1  0  0  0  0
 11 41  1  0  0  0  0
 12 18  1  0  0  0  0
 12 27  1  0  0  0  0
 12 42  1  0  0  0  0
 13 43  1  0  0  0  0
 13 44  1  0  0  0  0
 14 18  1  0  0  0  0
 14 45  1  0  0  0  0
 15 17  1  0  0  0  0
 15 19  1  0  0  0  0
 15 28  1  0  0  0  0
 15 31  1  0  0  0  0
 16 24  1  0  0  0  0
 16 46  1  0  0  0  0
 16 47  1  0  0  0  0
 17 24  2  0  0  0  0
 18 48  1  0  0  0  0
 18 49  1  0  0  0  0
 19 23  1  0  0  0  0
 19 26  1  0  0  0  0
 19 50  1  0  0  0  0
 20 23  1  0  0  0  0
 20 51  1  0  0  0  0
 21 52  1  0  0  0  0
 21 53  1  0  0  0  0
 21 54  1  0  0  0  0
 22 55  1  0  0  0  0
 22 56  1  0  0  0  0
 22 57  1  0  0  0  0
 23 58  1  0  0  0  0
 23 59  1  0  0  0  0
 24 60  1  0  0  0  0
 25 61  1  0  0  0  0
 25 62  1  0  0  0  0
 25 63  1  0  0  0  0
 26 29  1  0  0  0  0
 26 32  1  0  0  0  0
 26 33  1  0  0  0  0
 27 34  1  0  0  0  0
 27 35  1  0  0  0  0
 27 64  1  0  0  0  0
 28 30  1  0  0  0  0
 28 65  1  0  0  0  0
 28 66  1  0  0  0  0
 29 30  1  0  0  0  0
 29 67  1  0  0  0  0
 30 68  1  0  0  0  0
 31 69  1  0  0  0  0
 31 70  1  0  0  0  0
 31 71  1  0  0  0  0
 32 73  1  0  0  0  0
 32 74  1  0  0  0  0
 32 75  1  0  0  0  0
 33 76  1  0  0  0  0
 33 77  1  0  0  0  0
 33 78  1  0  0  0  0
 34 80  1  0  0  0  0
 34 81  1  0  0  0  0
 34 82  1  0  0  0  0
 35 83  1  0  0  0  0
 35 84  1  0  0  0  0
 35 85  1  0  0  0  0
 36 37  1  0  0  0  0
 37 87  1  0  0  0  0
 37 88  1  0  0  0  0
 37 89  1  0  0  0  0
M  END
> <PUBCHEM_COMPOUND_CID>
21672546

> <PUBCHEM_CONFORMER_RMSD>
0.8

> <PUBCHEM_CONFORMER_DIVERSEORDER>
1

> <PUBCHEM_MMFF94_PARTIAL_CHARGES>
20
1 -0.68
10 0.14
14 0.28
15 0.14
16 0.14
17 -0.28
2 -0.68
20 0.28
24 -0.29
29 0.28
3 -0.43
30 0.28
36 0.66
37 0.06
4 -0.68
5 -0.57
60 0.15
72 0.4
79 0.4
86 0.4

> <PUBCHEM_EFFECTIVE_ROTOR_COUNT>
5.4

> <PUBCHEM_PHARMACOPHORE_FEATURES>
14
1 1 acceptor
1 1 donor
1 2 acceptor
1 2 donor
1 4 acceptor
1 4 donor
1 5 acceptor
3 26 32 33 hydrophobe
3 27 34 35 hydrophobe
5 8 9 12 14 18 rings
6 10 15 17 19 20 23 rings
6 15 19 26 28 29 30 rings
6 6 7 10 16 17 24 rings
6 6 7 8 9 11 13 rings

> <PUBCHEM_HEAVY_ATOM_COUNT>
37

> <PUBCHEM_ATOM_DEF_STEREO_COUNT>
12

> <PUBCHEM_ATOM_UDEF_STEREO_COUNT>
0

> <PUBCHEM_BOND_DEF_STEREO_COUNT>
0

> <PUBCHEM_BOND_UDEF_STEREO_COUNT>
0

> <PUBCHEM_ISOTOPIC_ATOM_COUNT>
0

> <PUBCHEM_COMPONENT_COUNT>
1

> <PUBCHEM_CACTVS_TAUTO_COUNT>
1

> <PUBCHEM_CONFORMER_ID>
014AB26200000001

> <PUBCHEM_MMFF94_ENERGY>
174.3699

> <PUBCHEM_FEATURE_SELFOVERLAP>
71.143

> <PUBCHEM_SHAPE_FINGERPRINT>
10 15 11095878276910046086
11135609 187 18045506571646444436
11315181 36 18060422430497576419
11524674 6 16845290562239139271
11578080 2 16879609498628544303
12011746 2 18407759244296221025
12107698 1 18334013883130649436
12166972 35 17989207078924240112
12236239 1 18186516635821004481
12516196 113 18342171181087372937
12788726 201 18261388888873239368
13782708 43 17203327861595328054
13811026 1 18342736342526653050
14068700 675 17846500335395526841
14117953 113 18341890788927419125
14294032 229 17823132324660720341
14856354 85 18343869922436336479
14955137 171 18059856207188829384
15064981 113 17417524706278426525
15131766 46 14834399308429785272
15183329 4 18410576180133103090
15247644 1 16128659631326327366
15361156 5 18040723601258781309
15439362 3 17025453346643489660
15849732 13 18060416928016761861
16087824 20 18337670807455643557
16728433 281 17898565380936647261
18603816 31 16917057876469511967
18608769 82 18410853279081269510
18681886 176 18412537743062701257
20105231 36 18187653526739692411
21033648 29 17774140427167289475
21057603 40 17060343972717425062
21267235 1 18410578409004734881
21792934 111 18338499859969342592
21792961 116 17968378953873084778
23522609 53 18195278630861505648
23559900 14 18340477985078960153
23569917 315 18200599211131933679
23576562 1 18115586093052534637
249057 3 18412261757713649127
25269216 80 15213593363805278073
3004659 81 18187644726266981376
335352 9 18410006633821876951
350125 39 18408319977787963847
3633792 109 17989208118311249291
4017518 198 17346883346977238222
4073 2 17968660535311621627
4325135 7 18260548918055716838
437815 12 18131917061169887736
504579 68 18343303660498698879
59755656 215 18408044000986862742
6009941 240 17168151151870154931
6086070 43 17774996925535196851
6328613 192 18333732442376773981
9831232 110 18271815627060425550

> <PUBCHEM_SHAPE_MULTIPOLES>
732.1
21.36
2.61
1.34
5.06
0.11
0.28
-2.41
-6.9
-0.5
-0.19
0.62
0.03
0.44

> <PUBCHEM_SHAPE_SELFOVERLAP>
1549.921

> <PUBCHEM_SHAPE_VOLUME>
406.9

> <PUBCHEM_COORDINATE_TYPE>
2
5
10

$$$$
