91895456
  -OEChem-08272012163D

 82 86  0     1  0  0  0  0  0999 V2000
   -6.4688    0.9804    1.3329 O   0  0  0  0  0  0  0  0  0  0  0  0
    4.0795   -3.2459    0.5331 O   0  0  0  0  0  0  0  0  0  0  0  0
    3.0515   -1.9396    2.0928 O   0  0  0  0  0  0  0  0  0  0  0  0
    7.0299    2.6415   -0.6002 O   0  0  0  0  0  0  0  0  0  0  0  0
   -0.9771   -0.9359   -0.2433 C   0  0  2  0  0  0  0  0  0  0  0  0
   -1.6255    0.3213    0.4538 C   0  0  1  0  0  0  0  0  0  0  0  0
   -3.2090    0.3416    0.6552 C   0  0  2  0  0  0  0  0  0  0  0  0
    0.5493   -0.5425   -0.6992 C   0  0  1  0  0  0  0  0  0  0  0  0
   -3.8833   -0.0979   -0.6885 C   0  0  1  0  0  0  0  0  0  0  0  0
   -1.8397   -1.3586   -1.4630 C   0  0  0  0  0  0  0  0  0  0  0  0
    1.3088    0.1561    0.4471 C   0  0  0  0  0  0  0  0  0  0  0  0
   -3.3371   -1.4558   -1.1723 C   0  0  0  0  0  0  0  0  0  0  0  0
   -5.4590    0.0244   -0.7429 C   0  0  0  0  0  0  0  0  0  0  0  0
    2.8444    0.2529    0.4209 C   0  0  1  0  0  0  0  0  0  0  0  0
   -0.8229    0.6911    1.7177 C   0  0  0  0  0  0  0  0  0  0  0  0
    1.3253   -1.8204   -1.1335 C   0  0  0  0  0  0  0  0  0  0  0  0
    3.5303   -1.0407   -0.1166 C   0  0  1  0  0  0  0  0  0  0  0  0
   -3.6409    1.8165    0.9790 C   0  0  0  0  0  0  0  0  0  0  0  0
    2.8206   -1.6052   -1.3619 C   0  0  0  0  0  0  0  0  0  0  0  0
   -0.9314   -2.1495    0.7341 C   0  0  0  0  0  0  0  0  0  0  0  0
    0.6604    0.6672    1.5138 C   0  0  0  0  0  0  0  0  0  0  0  0
   -5.9585    1.2848    0.0377 C   0  0  2  0  0  0  0  0  0  0  0  0
   -3.6682   -0.5355    1.8453 C   0  0  0  0  0  0  0  0  0  0  0  0
    3.4438    1.5150   -0.2767 C   0  0  2  0  0  0  0  0  0  0  0  0
   -4.8602    2.3295    0.2046 C   0  0  0  0  0  0  0  0  0  0  0  0
    0.5391    0.4290   -1.9150 C   0  0  0  0  0  0  0  0  0  0  0  0
    5.0234   -0.8141   -0.4693 C   0  0  0  0  0  0  0  0  0  0  0  0
    4.9577    1.6622    0.0738 C   0  0  1  0  0  0  0  0  0  0  0  0
   -5.8574    0.2384   -2.2333 C   0  0  0  0  0  0  0  0  0  0  0  0
   -6.1880   -1.2567   -0.2859 C   0  0  0  0  0  0  0  0  0  0  0  0
    5.6412    0.3112    0.3513 C   0  0  0  0  0  0  0  0  0  0  0  0
    3.5115   -2.0960    0.9716 C   0  0  0  0  0  0  0  0  0  0  0  0
    2.7057    2.8154    0.0725 C   0  0  0  0  0  0  0  0  0  0  0  0
    5.7047    2.4158   -1.0354 C   0  0  0  0  0  0  0  0  0  0  0  0
   -1.4593    1.1500   -0.2476 H   0  0  0  0  0  0  0  0  0  0  0  0
   -3.5182    0.6304   -1.4317 H   0  0  0  0  0  0  0  0  0  0  0  0
   -1.4924   -2.3187   -1.8632 H   0  0  0  0  0  0  0  0  0  0  0  0
   -1.7377   -0.6369   -2.2786 H   0  0  0  0  0  0  0  0  0  0  0  0
   -3.8306   -1.7538   -2.1037 H   0  0  0  0  0  0  0  0  0  0  0  0
   -3.5370   -2.2558   -0.4540 H   0  0  0  0  0  0  0  0  0  0  0  0
    3.1497    0.3682    1.4736 H   0  0  0  0  0  0  0  0  0  0  0  0
   -1.0390    0.0116    2.5470 H   0  0  0  0  0  0  0  0  0  0  0  0
   -1.1013    1.6962    2.0533 H   0  0  0  0  0  0  0  0  0  0  0  0
    1.2398   -2.6114   -0.3836 H   0  0  0  0  0  0  0  0  0  0  0  0
    0.8881   -2.2286   -2.0531 H   0  0  0  0  0  0  0  0  0  0  0  0
   -3.8313    1.9234    2.0552 H   0  0  0  0  0  0  0  0  0  0  0  0
   -2.8263    2.5203    0.7675 H   0  0  0  0  0  0  0  0  0  0  0  0
    3.2643   -2.5593   -1.6743 H   0  0  0  0  0  0  0  0  0  0  0  0
    2.9626   -0.9306   -2.2146 H   0  0  0  0  0  0  0  0  0  0  0  0
   -0.1719   -2.0337    1.5132 H   0  0  0  0  0  0  0  0  0  0  0  0
   -0.7145   -3.0830    0.2028 H   0  0  0  0  0  0  0  0  0  0  0  0
   -1.8753   -2.3276    1.2407 H   0  0  0  0  0  0  0  0  0  0  0  0
    1.2350    1.1227    2.3177 H   0  0  0  0  0  0  0  0  0  0  0  0
   -6.7961    1.7429   -0.5025 H   0  0  0  0  0  0  0  0  0  0  0  0
   -3.6793   -1.6008    1.6183 H   0  0  0  0  0  0  0  0  0  0  0  0
   -4.6829   -0.2947    2.1655 H   0  0  0  0  0  0  0  0  0  0  0  0
   -3.0536   -0.3864    2.7359 H   0  0  0  0  0  0  0  0  0  0  0  0
    3.3667    1.3828   -1.3620 H   0  0  0  0  0  0  0  0  0  0  0  0
   -5.2533    3.2079    0.7317 H   0  0  0  0  0  0  0  0  0  0  0  0
   -4.5388    2.6822   -0.7833 H   0  0  0  0  0  0  0  0  0  0  0  0
    1.5362    0.7845   -2.1783 H   0  0  0  0  0  0  0  0  0  0  0  0
   -0.0632    1.3238   -1.7386 H   0  0  0  0  0  0  0  0  0  0  0  0
    0.1652   -0.0584   -2.8211 H   0  0  0  0  0  0  0  0  0  0  0  0
    5.1252   -0.5526   -1.5310 H   0  0  0  0  0  0  0  0  0  0  0  0
    5.6332   -1.7149   -0.3358 H   0  0  0  0  0  0  0  0  0  0  0  0
    5.0623    2.2496    0.9972 H   0  0  0  0  0  0  0  0  0  0  0  0
   -5.9631   -2.1086   -0.9364 H   0  0  0  0  0  0  0  0  0  0  0  0
   -5.9283   -1.5450    0.7346 H   0  0  0  0  0  0  0  0  0  0  0  0
   -5.5483   -0.5997   -2.8656 H   0  0  0  0  0  0  0  0  0  0  0  0
   -6.9445    0.3355   -2.3396 H   0  0  0  0  0  0  0  0  0  0  0  0
   -7.2748   -1.1138   -0.3164 H   0  0  0  0  0  0  0  0  0  0  0  0
   -5.4052    1.1491   -2.6417 H   0  0  0  0  0  0  0  0  0  0  0  0
    5.5399    0.0692    1.4175 H   0  0  0  0  0  0  0  0  0  0  0  0
    6.7194    0.3517    0.1617 H   0  0  0  0  0  0  0  0  0  0  0  0
    2.7037    2.9910    1.1534 H   0  0  0  0  0  0  0  0  0  0  0  0
    1.6688    2.7932   -0.2756 H   0  0  0  0  0  0  0  0  0  0  0  0
    3.1759    3.6813   -0.4034 H   0  0  0  0  0  0  0  0  0  0  0  0
    5.2451    3.3863   -1.2413 H   0  0  0  0  0  0  0  0  0  0  0  0
    5.7307    1.8368   -1.9644 H   0  0  0  0  0  0  0  0  0  0  0  0
   -6.7939    1.8076    1.7272 H   0  0  0  0  0  0  0  0  0  0  0  0
    4.0771   -3.9421    1.2240 H   0  0  0  0  0  0  0  0  0  0  0  0
    7.4908    3.1142   -1.3140 H   0  0  0  0  0  0  0  0  0  0  0  0
  1 22  1  0  0  0  0
  1 80  1  0  0  0  0
  2 32  1  0  0  0  0
  2 81  1  0  0  0  0
  3 32  2  0  0  0  0
  4 34  1  0  0  0  0
  4 82  1  0  0  0  0
  5  6  1  0  0  0  0
  5  8  1  0  0  0  0
  5 10  1  0  0  0  0
  5 20  1  0  0  0  0
  6  7  1  0  0  0  0
  6 15  1  0  0  0  0
  6 35  1  0  0  0  0
  7  9  1  0  0  0  0
  7 18  1  0  0  0  0
  7 23  1  0  0  0  0
  8 11  1  0  0  0  0
  8 16  1  0  0  0  0
  8 26  1  0  0  0  0
  9 12  1  0  0  0  0
  9 13  1  0  0  0  0
  9 36  1  0  0  0  0
 10 12  1  0  0  0  0
 10 37  1  0  0  0  0
 10 38  1  0  0  0  0
 11 14  1  0  0  0  0
 11 21  2  0  0  0  0
 12 39  1  0  0  0  0
 12 40  1  0  0  0  0
 13 22  1  0  0  0  0
 13 29  1  0  0  0  0
 13 30  1  0  0  0  0
 14 17  1  0  0  0  0
 14 24  1  0  0  0  0
 14 41  1  0  0  0  0
 15 21  1  0  0  0  0
 15 42  1  0  0  0  0
 15 43  1  0  0  0  0
 16 19  1  0  0  0  0
 16 44  1  0  0  0  0
 16 45  1  0  0  0  0
 17 19  1  0  0  0  0
 17 27  1  0  0  0  0
 17 32  1  0  0  0  0
 18 25  1  0  0  0  0
 18 46  1  0  0  0  0
 18 47  1  0  0  0  0
 19 48  1  0  0  0  0
 19 49  1  0  0  0  0
 20 50  1  0  0  0  0
 20 51  1  0  0  0  0
 20 52  1  0  0  0  0
 21 53  1  0  0  0  0
 22 25  1  0  0  0  0
 22 54  1  0  0  0  0
 23 55  1  0  0  0  0
 23 56  1  0  0  0  0
 23 57  1  0  0  0  0
 24 28  1  0  0  0  0
 24 33  1  0  0  0  0
 24 58  1  0  0  0  0
 25 59  1  0  0  0  0
 25 60  1  0  0  0  0
 26 61  1  0  0  0  0
 26 62  1  0  0  0  0
 26 63  1  0  0  0  0
 27 31  1  0  0  0  0
 27 64  1  0  0  0  0
 27 65  1  0  0  0  0
 28 31  1  0  0  0  0
 28 34  1  0  0  0  0
 28 66  1  0  0  0  0
 29 69  1  0  0  0  0
 29 70  1  0  0  0  0
 29 72  1  0  0  0  0
 30 67  1  0  0  0  0
 30 68  1  0  0  0  0
 30 71  1  0  0  0  0
 31 73  1  0  0  0  0
 31 74  1  0  0  0  0
 33 75  1  0  0  0  0
 33 76  1  0  0  0  0
 33 77  1  0  0  0  0
 34 78  1  0  0  0  0
 34 79  1  0  0  0  0
M  END
> <PUBCHEM_COMPOUND_CID>
91895456

> <PUBCHEM_CONFORMER_RMSD>
0.8

> <PUBCHEM_CONFORMER_DIVERSEORDER>
1

> <PUBCHEM_MMFF94_PARTIAL_CHARGES>
17
1 -0.68
11 -0.28
14 0.14
15 0.14
17 0.06
2 -0.65
21 -0.29
22 0.28
3 -0.57
32 0.66
34 0.28
4 -0.68
53 0.15
8 0.14
80 0.4
81 0.5
82 0.4

> <PUBCHEM_EFFECTIVE_ROTOR_COUNT>
4.6

> <PUBCHEM_PHARMACOPHORE_FEATURES>
13
1 1 acceptor
1 1 donor
1 2 acceptor
1 3 acceptor
1 4 acceptor
1 4 donor
3 13 29 30 hydrophobe
3 2 3 32 anion
6 14 17 24 27 28 31 rings
6 5 6 7 9 10 12 rings
6 5 6 8 11 15 21 rings
6 7 9 13 18 22 25 rings
6 8 11 14 16 17 19 rings

> <PUBCHEM_HEAVY_ATOM_COUNT>
34

> <PUBCHEM_ATOM_DEF_STEREO_COUNT>
10

> <PUBCHEM_ATOM_UDEF_STEREO_COUNT>
0

> <PUBCHEM_BOND_DEF_STEREO_COUNT>
0

> <PUBCHEM_BOND_UDEF_STEREO_COUNT>
0

> <PUBCHEM_ISOTOPIC_ATOM_COUNT>
0

> <PUBCHEM_COMPONENT_COUNT>
1

> <PUBCHEM_CACTVS_TAUTO_COUNT>
1

> <PUBCHEM_CONFORMER_ID>
057A36A000000001

> <PUBCHEM_MMFF94_ENERGY>
155.6767

> <PUBCHEM_FEATURE_SELFOVERLAP>
66.094

> <PUBCHEM_SHAPE_FINGERPRINT>
10554248 39 18199737060385376919
10595046 47 18411699889701628633
10670039 82 16558484019106154560
10906281 52 17632028480811127447
11578080 2 17895491322291040722
12107183 9 17908705025141923395
12166972 35 17988922245335688696
12236239 1 18343018891292731943
12596602 18 18334857212570074331
12788726 201 17917716755803465800
13224815 77 17131835352209527659
13583140 156 18260555540932236683
13782708 43 17604145905060022251
13785724 45 17765716819643259438
14294032 229 16844188770289704081
15183329 4 18201717362352673797
1577012 14 18201718449301055485
15788980 27 18342739572906490699
15840311 113 18262803948123003037
17349148 13 17346593058858717603
18335252 98 18188776171103437835
18608769 82 18200313363825377807
18681886 176 17775280582566251082
20511986 3 18200863041812408992
20715895 44 17841434726718371473
21033648 144 18113898265072590277
21033648 29 16515682209291059477
21033650 10 14476701671238752659
22149856 69 14201960056914118285
22393880 68 17560234855231057540
23522609 53 17916607391779812233
23559900 14 17060331959297751624
23569914 2 17245501799090740925
23569943 247 17170098249624993259
2838139 119 18408603694843923149
3004659 81 18202282459842314994
32027 91 17532365370788307930
3411729 13 18408608072089850022
350125 39 18131633400466214945
3633792 109 18188195547306385023
397830 11 17604445101224211969
4058900 60 18413395332300191110
4073 2 18187651344236760411
4098825 35 18409729548244025593
4340502 62 18113337518342855546
474 4 18411699898143896126
5104073 3 18336272271424329611
70251023 43 18045219341766614794

> <PUBCHEM_SHAPE_MULTIPOLES>
676.23
15.69
2.75
1.68
3.97
0.21
-0.01
6.57
2.31
-3.1
-0.07
0.9
-0.29
-1.78

> <PUBCHEM_SHAPE_SELFOVERLAP>
1434.831

> <PUBCHEM_SHAPE_VOLUME>
366.9

> <PUBCHEM_COORDINATE_TYPE>
2
5
10

$$$$
