57335470
  -OEChem-08272011563D

 71 75  0     1  0  0  0  0  0999 V2000
    3.6020    0.1141   -0.6642 O   0  0  0  0  0  0  0  0  0  0  0  0
    1.2793   -2.6001    0.1028 O   0  0  0  0  0  0  0  0  0  0  0  0
    3.4981    1.5207    1.2442 O   0  0  0  0  0  0  0  0  0  0  0  0
    1.2181   -0.3687    0.7821 O   0  0  0  0  0  0  0  0  0  0  0  0
    5.2481   -2.3166   -0.9142 O   0  0  0  0  0  0  0  0  0  0  0  0
    3.6610   -4.5153   -1.9152 O   0  0  0  0  0  0  0  0  0  0  0  0
    6.2199    2.2474    0.6752 O   0  0  0  0  0  0  0  0  0  0  0  0
    5.5527    3.8910   -1.4691 O   0  0  0  0  0  0  0  0  0  0  0  0
    2.8838    4.5760   -0.7247 O   0  0  0  0  0  0  0  0  0  0  0  0
   -0.3141   -4.7611   -0.4856 O   0  0  0  0  0  0  0  0  0  0  0  0
   -2.6451   -0.8236    3.5297 O   0  0  0  0  0  0  0  0  0  0  0  0
   -2.6215    0.8597   -2.2256 O   0  0  0  0  0  0  0  0  0  0  0  0
   -4.9197   -0.3033    2.4568 O   0  0  0  0  0  0  0  0  0  0  0  0
   -7.5622    1.5301   -2.9752 O   0  0  0  0  0  0  0  0  0  0  0  0
    3.2299   -1.1891   -0.2163 C   0  0  2  0  0  0  0  0  0  0  0  0
    3.8407   -2.2385   -1.1453 C   0  0  2  0  0  0  0  0  0  0  0  0
    3.2418   -3.6213   -0.8876 C   0  0  1  0  0  0  0  0  0  0  0  0
    4.3427    0.8117    0.3312 C   0  0  2  0  0  0  0  0  0  0  0  0
    1.7036   -1.2749   -0.2079 C   0  0  1  0  0  0  0  0  0  0  0  0
    1.7128   -3.5557   -0.8667 C   0  0  1  0  0  0  0  0  0  0  0  0
    5.3339    1.7638   -0.3355 C   0  0  1  0  0  0  0  0  0  0  0  0
    4.6057    2.9362   -0.9952 C   0  0  1  0  0  0  0  0  0  0  0  0
    3.6562    3.6160   -0.0080 C   0  0  2  0  0  0  0  0  0  0  0  0
    2.7370    2.5730    0.6430 C   0  0  2  0  0  0  0  0  0  0  0  0
    1.0950   -4.9001   -0.4955 C   0  0  0  0  0  0  0  0  0  0  0  0
    1.8709    3.1811    1.7428 C   0  0  0  0  0  0  0  0  0  0  0  0
   -0.1333   -0.2927    0.9415 C   0  0  0  0  0  0  0  0  0  0  0  0
   -0.7259   -0.5979    2.1652 C   0  0  0  0  0  0  0  0  0  0  0  0
   -0.9232    0.0959   -0.1409 C   0  0  0  0  0  0  0  0  0  0  0  0
   -2.3134    0.1797    0.0019 C   0  0  0  0  0  0  0  0  0  0  0  0
   -2.9073   -0.1259    1.2283 C   0  0  0  0  0  0  0  0  0  0  0  0
   -2.1109   -0.5156    2.3118 C   0  0  0  0  0  0  0  0  0  0  0  0
    0.1297   -1.0132    3.3200 C   0  0  0  0  0  0  0  0  0  0  0  0
   -3.1416    0.5920   -1.1496 C   0  0  0  0  0  0  0  0  0  0  0  0
   -4.3728   -0.0412    1.3929 C   0  0  0  0  0  0  0  0  0  0  0  0
   -4.6072    0.6770   -0.9849 C   0  0  0  0  0  0  0  0  0  0  0  0
   -5.2010    0.3715    0.2415 C   0  0  0  0  0  0  0  0  0  0  0  0
   -5.4034    1.0671   -2.0685 C   0  0  0  0  0  0  0  0  0  0  0  0
   -6.5911    0.4559    0.3845 C   0  0  0  0  0  0  0  0  0  0  0  0
   -6.7883    1.1499   -1.9217 C   0  0  0  0  0  0  0  0  0  0  0  0
   -7.3809    0.8451   -0.6979 C   0  0  0  0  0  0  0  0  0  0  0  0
    3.5814   -1.3794    0.8078 H   0  0  0  0  0  0  0  0  0  0  0  0
    3.7182   -1.9459   -2.1947 H   0  0  0  0  0  0  0  0  0  0  0  0
    3.6206   -4.0156    0.0633 H   0  0  0  0  0  0  0  0  0  0  0  0
    4.9335    0.1124    0.9365 H   0  0  0  0  0  0  0  0  0  0  0  0
    1.3197   -0.9794   -1.1929 H   0  0  0  0  0  0  0  0  0  0  0  0
    1.3171   -3.2604   -1.8480 H   0  0  0  0  0  0  0  0  0  0  0  0
    5.9417    1.2449   -1.0857 H   0  0  0  0  0  0  0  0  0  0  0  0
    4.0422    2.5867   -1.8692 H   0  0  0  0  0  0  0  0  0  0  0  0
    4.2330    4.1589    0.7501 H   0  0  0  0  0  0  0  0  0  0  0  0
    2.0609    2.1452   -0.1081 H   0  0  0  0  0  0  0  0  0  0  0  0
    1.4064   -5.2085    0.5081 H   0  0  0  0  0  0  0  0  0  0  0  0
    1.3662   -5.6792   -1.2142 H   0  0  0  0  0  0  0  0  0  0  0  0
    1.2185    3.9674    1.3516 H   0  0  0  0  0  0  0  0  0  0  0  0
    1.2464    2.4110    2.2082 H   0  0  0  0  0  0  0  0  0  0  0  0
    2.4925    3.6041    2.5396 H   0  0  0  0  0  0  0  0  0  0  0  0
    5.3892   -2.5473    0.0198 H   0  0  0  0  0  0  0  0  0  0  0  0
    3.3190   -4.1811   -2.7620 H   0  0  0  0  0  0  0  0  0  0  0  0
    6.7131    1.4852    1.0237 H   0  0  0  0  0  0  0  0  0  0  0  0
    6.1467    3.4315   -2.0868 H   0  0  0  0  0  0  0  0  0  0  0  0
    2.3448    4.1007   -1.3799 H   0  0  0  0  0  0  0  0  0  0  0  0
   -0.6862   -5.6259   -0.2422 H   0  0  0  0  0  0  0  0  0  0  0  0
   -0.4555    0.3544   -1.0871 H   0  0  0  0  0  0  0  0  0  0  0  0
    0.1899   -0.2002    4.0510 H   0  0  0  0  0  0  0  0  0  0  0  0
   -0.2852   -1.9017    3.8085 H   0  0  0  0  0  0  0  0  0  0  0  0
    1.1501   -1.2749    3.0234 H   0  0  0  0  0  0  0  0  0  0  0  0
   -3.6094   -0.7351    3.5200 H   0  0  0  0  0  0  0  0  0  0  0  0
   -4.9528    1.3076   -3.0283 H   0  0  0  0  0  0  0  0  0  0  0  0
   -7.0791    0.2239    1.3273 H   0  0  0  0  0  0  0  0  0  0  0  0
   -8.4593    0.9088   -0.5799 H   0  0  0  0  0  0  0  0  0  0  0  0
   -6.9894    1.7029   -3.7421 H   0  0  0  0  0  0  0  0  0  0  0  0
  1 15  1  0  0  0  0
  1 18  1  0  0  0  0
  2 19  1  0  0  0  0
  2 20  1  0  0  0  0
  3 18  1  0  0  0  0
  3 24  1  0  0  0  0
  4 19  1  0  0  0  0
  4 27  1  0  0  0  0
  5 16  1  0  0  0  0
  5 57  1  0  0  0  0
  6 17  1  0  0  0  0
  6 58  1  0  0  0  0
  7 21  1  0  0  0  0
  7 59  1  0  0  0  0
  8 22  1  0  0  0  0
  8 60  1  0  0  0  0
  9 23  1  0  0  0  0
  9 61  1  0  0  0  0
 10 25  1  0  0  0  0
 10 62  1  0  0  0  0
 11 32  1  0  0  0  0
 11 67  1  0  0  0  0
 12 34  2  0  0  0  0
 13 35  2  0  0  0  0
 14 40  1  0  0  0  0
 14 71  1  0  0  0  0
 15 16  1  0  0  0  0
 15 19  1  0  0  0  0
 15 42  1  0  0  0  0
 16 17  1  0  0  0  0
 16 43  1  0  0  0  0
 17 20  1  0  0  0  0
 17 44  1  0  0  0  0
 18 21  1  0  0  0  0
 18 45  1  0  0  0  0
 19 46  1  0  0  0  0
 20 25  1  0  0  0  0
 20 47  1  0  0  0  0
 21 22  1  0  0  0  0
 21 48  1  0  0  0  0
 22 23  1  0  0  0  0
 22 49  1  0  0  0  0
 23 24  1  0  0  0  0
 23 50  1  0  0  0  0
 24 26  1  0  0  0  0
 24 51  1  0  0  0  0
 25 52  1  0  0  0  0
 25 53  1  0  0  0  0
 26 54  1  0  0  0  0
 26 55  1  0  0  0  0
 26 56  1  0  0  0  0
 27 28  2  0  0  0  0
 27 29  1  0  0  0  0
 28 32  1  0  0  0  0
 28 33  1  0  0  0  0
 29 30  2  0  0  0  0
 29 63  1  0  0  0  0
 30 31  1  0  0  0  0
 30 34  1  0  0  0  0
 31 32  2  0  0  0  0
 31 35  1  0  0  0  0
 33 64  1  0  0  0  0
 33 65  1  0  0  0  0
 33 66  1  0  0  0  0
 34 36  1  0  0  0  0
 35 37  1  0  0  0  0
 36 37  2  0  0  0  0
 36 38  1  0  0  0  0
 37 39  1  0  0  0  0
 38 40  2  0  0  0  0
 38 68  1  0  0  0  0
 39 41  2  0  0  0  0
 39 69  1  0  0  0  0
 40 41  1  0  0  0  0
 41 70  1  0  0  0  0
M  END
> <PUBCHEM_COMPOUND_CID>
57335470

> <PUBCHEM_CONFORMER_RMSD>
1

> <PUBCHEM_CONFORMER_DIVERSEORDER>
1
127
80
149
101
144
107
82
123
35
187
185
141
166
120
76
60
132
164
93
122
98
180
160
174
189
182
42
154
178
163
105
24
171
128
68
119
73
167
142
79
47
153
111
99
113
58
77
165
146
81
181
70
59
188
150
104
161
139
83
21
9
100
48
74
26
19
126
92
121
69
22
18
103
43
179
33
84
147
50
95
168
183
65
175
117
23
85
25
86
54
36
170
75
96
5
53
28
51
130
140
44
152
191
177
55
173
16
17
90
115
39
34
157
67
110
61
190
40
156
71
186
155
129
63
31
2
102
135
118
116
6
52
112
97
133
56
91
184
57
72
37
46
169
124
11
151
109
12
136
108
176
45
29
172
125
94
49
13
106
137
162
66
114
87
8
20
14
148
143
38
4
27
78
41
3
15
64
32
134
131
10
158
145
88
138
159
89
62
7
30

> <PUBCHEM_MMFF94_PARTIAL_CHARGES>
52
1 -0.56
10 -0.68
11 -0.53
12 -0.57
13 -0.57
14 -0.53
15 0.28
16 0.28
17 0.28
18 0.56
19 0.56
2 -0.56
20 0.28
21 0.28
22 0.28
23 0.28
24 0.28
25 0.28
27 0.08
28 -0.14
29 -0.15
3 -0.56
30 0.09
31 0.09
32 0.08
33 0.14
34 0.4
35 0.4
36 0.09
37 0.09
38 -0.15
39 -0.15
4 -0.36
40 0.08
41 -0.15
5 -0.68
57 0.4
58 0.4
59 0.4
6 -0.68
60 0.4
61 0.4
62 0.4
63 0.15
67 0.45
68 0.15
69 0.15
7 -0.68
70 0.15
71 0.45
8 -0.68
9 -0.68

> <PUBCHEM_EFFECTIVE_ROTOR_COUNT>
7.4

> <PUBCHEM_PHARMACOPHORE_FEATURES>
25
1 1 acceptor
1 10 acceptor
1 10 donor
1 11 donor
1 12 acceptor
1 13 acceptor
1 14 donor
1 2 acceptor
1 3 acceptor
1 4 acceptor
1 5 acceptor
1 5 donor
1 6 acceptor
1 6 donor
1 7 acceptor
1 7 donor
1 8 acceptor
1 8 donor
1 9 acceptor
1 9 donor
6 2 15 16 17 19 20 rings
6 27 28 29 30 31 32 rings
6 3 18 21 22 23 24 rings
6 30 31 34 35 36 37 rings
6 36 37 38 39 40 41 rings

> <PUBCHEM_HEAVY_ATOM_COUNT>
41

> <PUBCHEM_ATOM_DEF_STEREO_COUNT>
10

> <PUBCHEM_ATOM_UDEF_STEREO_COUNT>
0

> <PUBCHEM_BOND_DEF_STEREO_COUNT>
0

> <PUBCHEM_BOND_UDEF_STEREO_COUNT>
0

> <PUBCHEM_ISOTOPIC_ATOM_COUNT>
0

> <PUBCHEM_COMPONENT_COUNT>
1

> <PUBCHEM_CACTVS_TAUTO_COUNT>
71

> <PUBCHEM_CONFORMER_ID>
036ADEAE00000001

> <PUBCHEM_MMFF94_ENERGY>
136.4161

> <PUBCHEM_FEATURE_SELFOVERLAP>
127.054

> <PUBCHEM_SHAPE_FINGERPRINT>
10556698 54 17753311090387303053
11377469 6 17413868726108661702
11582403 64 18041266764409211842
11621639 208 17829596275915838989
11763715 3 17406021473314737526
1361 2 18412259536513755348
13636023 51 17894910728933649038
13911987 19 18269289017769128600
15082195 135 18270672074706198457
15274700 147 16241543538748563813
15324884 4 17824858673632220114
15328829 1 17275106102364718095
15448158 71 17464538985869241924
15950262 2 16879641607636049372
19304671 126 18188479165646388869
19315958 150 18267606722867820259
19319366 153 18059844035362587975
20554085 129 17022899017268468003
21033648 29 17603590750260557584
21968339 14 18413102853664416088
23522609 53 17345771719858162137
23559900 14 17458639877618817503
25223398 141 17910663586754590362
3004659 81 15913322524698381641
34797466 226 18334852797876099465
3882209 13 17830727661191737154
4015057 19 18341339890209378643
4093350 32 18409724029189899213
4366758 6 18129931391226901408
46194498 28 18336820892881314413
5223283 242 17690276015868095637
5951187 136 17968365758683947337
6677587 24 18046875304544822727
70251023 43 18055919788527028622

> <PUBCHEM_SHAPE_MULTIPOLES>
761.59
16.22
5.43
2.6
19.97
3.48
1.47
-11.12
-8.89
-12.3
-2.62
3.51
0.08
2.86

> <PUBCHEM_SHAPE_SELFOVERLAP>
1666.254

> <PUBCHEM_SHAPE_VOLUME>
406.9

> <PUBCHEM_COORDINATE_TYPE>
2
5
10

$$$$
