521556
  -OEChem-09062005173D

 68 67  0     1  0  0  0  0  0999 V2000
    2.5006    3.2184    0.2166 C   0  0  1  0  0  0  0  0  0  0  0  0
    3.0292    2.0915   -0.6991 C   0  0  0  0  0  0  0  0  0  0  0  0
    4.1077   -1.6507   -0.2391 C   0  0  1  0  0  0  0  0  0  0  0  0
    1.1773    2.7519    0.8638 C   0  0  0  0  0  0  0  0  0  0  0  0
    3.3272    0.7831    0.0416 C   0  0  0  0  0  0  0  0  0  0  0  0
    3.7760   -0.3133   -0.9306 C   0  0  0  0  0  0  0  0  0  0  0  0
    0.0808    2.4032   -0.1506 C   0  0  0  0  0  0  0  0  0  0  0  0
   -1.2237    2.0230    0.5610 C   0  0  0  0  0  0  0  0  0  0  0  0
   -2.3825    1.5974   -0.3676 C   0  0  1  0  0  0  0  0  0  0  0  0
    2.9695   -2.2113    0.6417 C   0  0  0  0  0  0  0  0  0  0  0  0
    1.6720   -2.5428   -0.1040 C   0  0  0  0  0  0  0  0  0  0  0  0
   -3.5716    1.0278    0.4314 C   0  0  0  0  0  0  0  0  0  0  0  0
    3.5353    3.6215    1.2721 C   0  0  0  0  0  0  0  0  0  0  0  0
    4.5630   -2.6747   -1.2846 C   0  0  0  0  0  0  0  0  0  0  0  0
    0.5506   -3.0360    0.8209 C   0  0  0  0  0  0  0  0  0  0  0  0
   -2.8050    2.7399   -1.2953 C   0  0  0  0  0  0  0  0  0  0  0  0
   -4.6590    0.4150   -0.4579 C   0  0  0  0  0  0  0  0  0  0  0  0
   -0.8038   -3.3227    0.1448 C   0  0  0  0  0  0  0  0  0  0  0  0
   -5.7805   -0.1981    0.3823 C   0  0  0  0  0  0  0  0  0  0  0  0
   -1.3901   -2.0857   -0.5365 C   0  0  0  0  0  0  0  0  0  0  0  0
   -1.7947   -3.8572    1.1832 C   0  0  0  0  0  0  0  0  0  0  0  0
   -6.8784   -0.7800   -0.4940 C   0  0  0  0  0  0  0  0  0  0  0  0
    2.2981    4.0962   -0.4104 H   0  0  0  0  0  0  0  0  0  0  0  0
    2.3381    1.9114   -1.5296 H   0  0  0  0  0  0  0  0  0  0  0  0
    3.9573    2.4414   -1.1710 H   0  0  0  0  0  0  0  0  0  0  0  0
    4.9616   -1.4723    0.4288 H   0  0  0  0  0  0  0  0  0  0  0  0
    1.3387    1.9190    1.5567 H   0  0  0  0  0  0  0  0  0  0  0  0
    0.8083    3.5764    1.4895 H   0  0  0  0  0  0  0  0  0  0  0  0
    4.1083    0.9354    0.7937 H   0  0  0  0  0  0  0  0  0  0  0  0
    2.4287    0.4400    0.5571 H   0  0  0  0  0  0  0  0  0  0  0  0
    3.0003   -0.4669   -1.6909 H   0  0  0  0  0  0  0  0  0  0  0  0
    4.6671    0.0353   -1.4689 H   0  0  0  0  0  0  0  0  0  0  0  0
   -0.0764    3.2632   -0.8090 H   0  0  0  0  0  0  0  0  0  0  0  0
    0.3805    1.5549   -0.7735 H   0  0  0  0  0  0  0  0  0  0  0  0
   -1.0090    1.1956    1.2501 H   0  0  0  0  0  0  0  0  0  0  0  0
   -1.5547    2.8648    1.1828 H   0  0  0  0  0  0  0  0  0  0  0  0
   -2.0020    0.7927   -1.0100 H   0  0  0  0  0  0  0  0  0  0  0  0
    2.7561   -1.5154    1.4610 H   0  0  0  0  0  0  0  0  0  0  0  0
    3.3299   -3.1278    1.1280 H   0  0  0  0  0  0  0  0  0  0  0  0
    1.8587   -3.3096   -0.8638 H   0  0  0  0  0  0  0  0  0  0  0  0
    1.3303   -1.6457   -0.6285 H   0  0  0  0  0  0  0  0  0  0  0  0
   -4.0089    1.8211    1.0509 H   0  0  0  0  0  0  0  0  0  0  0  0
   -3.2049    0.2576    1.1213 H   0  0  0  0  0  0  0  0  0  0  0  0
    3.7082    2.8255    2.0029 H   0  0  0  0  0  0  0  0  0  0  0  0
    3.1876    4.5015    1.8240 H   0  0  0  0  0  0  0  0  0  0  0  0
    4.4919    3.8764    0.8047 H   0  0  0  0  0  0  0  0  0  0  0  0
    5.4674   -2.3250   -1.7943 H   0  0  0  0  0  0  0  0  0  0  0  0
    4.7980   -3.6353   -0.8144 H   0  0  0  0  0  0  0  0  0  0  0  0
    3.7981   -2.8441   -2.0490 H   0  0  0  0  0  0  0  0  0  0  0  0
    0.4004   -2.2911    1.6137 H   0  0  0  0  0  0  0  0  0  0  0  0
    0.8963   -3.9500    1.3212 H   0  0  0  0  0  0  0  0  0  0  0  0
   -1.9649    3.1086   -1.8906 H   0  0  0  0  0  0  0  0  0  0  0  0
   -3.5653    2.4190   -2.0129 H   0  0  0  0  0  0  0  0  0  0  0  0
   -3.2102    3.5807   -0.7226 H   0  0  0  0  0  0  0  0  0  0  0  0
   -5.0941    1.1804   -1.1088 H   0  0  0  0  0  0  0  0  0  0  0  0
   -4.2196   -0.3538   -1.1044 H   0  0  0  0  0  0  0  0  0  0  0  0
   -0.6572   -4.0983   -0.6173 H   0  0  0  0  0  0  0  0  0  0  0  0
   -5.3746   -0.9890    1.0239 H   0  0  0  0  0  0  0  0  0  0  0  0
   -6.2128    0.5645    1.0405 H   0  0  0  0  0  0  0  0  0  0  0  0
   -2.3936   -2.2915   -0.9239 H   0  0  0  0  0  0  0  0  0  0  0  0
   -0.7757   -1.7654   -1.3830 H   0  0  0  0  0  0  0  0  0  0  0  0
   -1.4613   -1.2548    0.1708 H   0  0  0  0  0  0  0  0  0  0  0  0
   -2.7515   -4.1095    0.7137 H   0  0  0  0  0  0  0  0  0  0  0  0
   -1.4084   -4.7646    1.6593 H   0  0  0  0  0  0  0  0  0  0  0  0
   -1.9872   -3.1171    1.9676 H   0  0  0  0  0  0  0  0  0  0  0  0
   -6.4846   -1.5674   -1.1447 H   0  0  0  0  0  0  0  0  0  0  0  0
   -7.6679   -1.2152    0.1266 H   0  0  0  0  0  0  0  0  0  0  0  0
   -7.3292   -0.0066   -1.1240 H   0  0  0  0  0  0  0  0  0  0  0  0
  1  2  1  0  0  0  0
  1  4  1  0  0  0  0
  1 13  1  0  0  0  0
  1 23  1  0  0  0  0
  2  5  1  0  0  0  0
  2 24  1  0  0  0  0
  2 25  1  0  0  0  0
  3  6  1  0  0  0  0
  3 10  1  0  0  0  0
  3 14  1  0  0  0  0
  3 26  1  0  0  0  0
  4  7  1  0  0  0  0
  4 27  1  0  0  0  0
  4 28  1  0  0  0  0
  5  6  1  0  0  0  0
  5 29  1  0  0  0  0
  5 30  1  0  0  0  0
  6 31  1  0  0  0  0
  6 32  1  0  0  0  0
  7  8  1  0  0  0  0
  7 33  1  0  0  0  0
  7 34  1  0  0  0  0
  8  9  1  0  0  0  0
  8 35  1  0  0  0  0
  8 36  1  0  0  0  0
  9 12  1  0  0  0  0
  9 16  1  0  0  0  0
  9 37  1  0  0  0  0
 10 11  1  0  0  0  0
 10 38  1  0  0  0  0
 10 39  1  0  0  0  0
 11 15  1  0  0  0  0
 11 40  1  0  0  0  0
 11 41  1  0  0  0  0
 12 17  1  0  0  0  0
 12 42  1  0  0  0  0
 12 43  1  0  0  0  0
 13 44  1  0  0  0  0
 13 45  1  0  0  0  0
 13 46  1  0  0  0  0
 14 47  1  0  0  0  0
 14 48  1  0  0  0  0
 14 49  1  0  0  0  0
 15 18  1  0  0  0  0
 15 50  1  0  0  0  0
 15 51  1  0  0  0  0
 16 52  1  0  0  0  0
 16 53  1  0  0  0  0
 16 54  1  0  0  0  0
 17 19  1  0  0  0  0
 17 55  1  0  0  0  0
 17 56  1  0  0  0  0
 18 20  1  0  0  0  0
 18 21  1  0  0  0  0
 18 57  1  0  0  0  0
 19 22  1  0  0  0  0
 19 58  1  0  0  0  0
 19 59  1  0  0  0  0
 20 60  1  0  0  0  0
 20 61  1  0  0  0  0
 20 62  1  0  0  0  0
 21 63  1  0  0  0  0
 21 64  1  0  0  0  0
 21 65  1  0  0  0  0
 22 66  1  0  0  0  0
 22 67  1  0  0  0  0
 22 68  1  0  0  0  0
M  END
> <PUBCHEM_COMPOUND_CID>
521556

> <PUBCHEM_CONFORMER_RMSD>
1.6

> <PUBCHEM_CONFORMER_DIVERSEORDER>
1
25
12
40
13
6
35
26
51
39
5
36
15
29
47
17
34
49
53
27
21
37
28
31
52
33
19
61
48
11
50
14
42
44
41
59
45
22
43
30
58
2
20
16
23
55
10
24
46
9
7
56
38
4
57
18
54
60
8
3
32

> <PUBCHEM_MMFF94_PARTIAL_CHARGES>
0

> <PUBCHEM_EFFECTIVE_ROTOR_COUNT>
15

> <PUBCHEM_PHARMACOPHORE_FEATURES>
5
1 13 hydrophobe
1 14 hydrophobe
1 16 hydrophobe
1 22 hydrophobe
3 18 20 21 hydrophobe

> <PUBCHEM_HEAVY_ATOM_COUNT>
22

> <PUBCHEM_ATOM_DEF_STEREO_COUNT>
0

> <PUBCHEM_ATOM_UDEF_STEREO_COUNT>
3

> <PUBCHEM_BOND_DEF_STEREO_COUNT>
0

> <PUBCHEM_BOND_UDEF_STEREO_COUNT>
0

> <PUBCHEM_ISOTOPIC_ATOM_COUNT>
0

> <PUBCHEM_COMPONENT_COUNT>
1

> <PUBCHEM_CACTVS_TAUTO_COUNT>
1

> <PUBCHEM_CONFORMER_ID>
0007F55400000001

> <PUBCHEM_MMFF94_ENERGY>
19.0515

> <PUBCHEM_FEATURE_SELFOVERLAP>
25.376

> <PUBCHEM_SHAPE_FINGERPRINT>
10316853 100 18408041827464301507
108634 29 18339935805418817614
1100329 8 18410573964141098290
11014199 57 17474106497291860979
12645989 146 18198630942845873950
13122387 1 17905891375160711698
13402501 40 18408889533633305363
13533116 47 18271809051259798801
1361 2 18335701684971595953
14647877 51 18339365274457514235
14725015 67 18262788571606950123
14787075 74 18335144133729028383
14931854 50 18337401443821776606
15110567 62 18408888404188651993
15927050 60 18198058286170358999
17093844 170 18194960970768897936
19591789 44 18409729552064161125
19930381 70 18265333893828038315
20028762 73 18272651203930847959
20775438 99 18198605804333328831
21197605 99 18197780114329889183
238918 7 17624693858128437840
338550 245 18335139851203165485
463206 1 17762052142844345036
484989 97 18334871536006769371
6433294 58 18410857706591405384

> <PUBCHEM_SHAPE_MULTIPOLES>
452.75
11.54
6.01
1.13
15.29
1.06
-0.02
1.13
-2.25
-4.04
1.38
-0.38
-0.04
1.99

> <PUBCHEM_SHAPE_SELFOVERLAP>
825.707

> <PUBCHEM_SHAPE_VOLUME>
290.8

> <PUBCHEM_COORDINATE_TYPE>
2
5
10

$$$$
