46899083
  -OEChem-09232016192D

 68 68  0     1  0  0  0  0  0999 V2000
    5.1350   -3.9400    0.0000 O   0  0  0  0  0  0  0  0  0  0  0  0
    3.4030   -3.9400    0.0000 O   0  0  0  0  0  0  0  0  0  0  0  0
    2.5369   -5.4400    0.0000 O   0  0  0  0  0  0  0  0  0  0  0  0
    2.5369   -7.4400    0.0000 O   0  0  0  0  0  0  0  0  0  0  0  0
   10.3312    5.0600    0.0000 C   0  0  0  0  0  0  0  0  0  0  0  0
   10.3312    6.0600    0.0000 C   0  0  0  0  0  0  0  0  0  0  0  0
    9.4651    4.5600    0.0000 C   0  0  0  0  0  0  0  0  0  0  0  0
   11.1972    6.5600    0.0000 C   0  0  2  0  0  0  0  0  0  0  0  0
    9.4651    3.5600    0.0000 C   0  0  0  0  0  0  0  0  0  0  0  0
    8.5991    3.0600    0.0000 C   0  0  0  0  0  0  0  0  0  0  0  0
    8.5991    2.0600    0.0000 C   0  0  0  0  0  0  0  0  0  0  0  0
    7.7331    1.5600    0.0000 C   0  0  0  0  0  0  0  0  0  0  0  0
    7.7331    0.5600    0.0000 C   0  0  0  0  0  0  0  0  0  0  0  0
    6.8671    0.0600    0.0000 C   0  0  0  0  0  0  0  0  0  0  0  0
   11.1972    7.5600    0.0000 C   0  0  0  0  0  0  0  0  0  0  0  0
    6.8671   -0.9400    0.0000 C   0  0  0  0  0  0  0  0  0  0  0  0
   12.0632    6.0600    0.0000 C   0  0  0  0  0  0  0  0  0  0  0  0
    6.0010   -1.4400    0.0000 C   0  0  0  0  0  0  0  0  0  0  0  0
   12.0632    8.0600    0.0000 C   0  0  0  0  0  0  0  0  0  0  0  0
    6.0010   -2.4400    0.0000 C   0  0  0  0  0  0  0  0  0  0  0  0
    5.1350   -2.9400    0.0000 C   0  0  0  0  0  0  0  0  0  0  0  0
    4.2690   -4.4400    0.0000 C   0  0  0  0  0  0  0  0  0  0  0  0
    4.2690   -5.4400    0.0000 C   0  0  0  0  0  0  0  0  0  0  0  0
    3.4030   -5.9400    0.0000 C   0  0  0  0  0  0  0  0  0  0  0  0
    5.1350   -5.9400    0.0000 C   0  0  0  0  0  0  0  0  0  0  0  0
    3.4030   -6.9400    0.0000 C   0  0  0  0  0  0  0  0  0  0  0  0
    5.1350   -6.9400    0.0000 C   0  0  0  0  0  0  0  0  0  0  0  0
    4.2690   -7.4400    0.0000 C   0  0  0  0  0  0  0  0  0  0  0  0
   10.5432    4.4774    0.0000 H   0  0  0  0  0  0  0  0  0  0  0  0
   10.9417    5.1677    0.0000 H   0  0  0  0  0  0  0  0  0  0  0  0
   10.1191    6.6426    0.0000 H   0  0  0  0  0  0  0  0  0  0  0  0
    9.7206    5.9523    0.0000 H   0  0  0  0  0  0  0  0  0  0  0  0
    9.2531    5.1426    0.0000 H   0  0  0  0  0  0  0  0  0  0  0  0
    8.8546    4.4523    0.0000 H   0  0  0  0  0  0  0  0  0  0  0  0
   11.1972    5.9400    0.0000 H   0  0  0  0  0  0  0  0  0  0  0  0
    9.6772    2.9774    0.0000 H   0  0  0  0  0  0  0  0  0  0  0  0
   10.0757    3.6677    0.0000 H   0  0  0  0  0  0  0  0  0  0  0  0
    8.3871    3.6426    0.0000 H   0  0  0  0  0  0  0  0  0  0  0  0
    7.9885    2.9523    0.0000 H   0  0  0  0  0  0  0  0  0  0  0  0
    8.8112    1.4774    0.0000 H   0  0  0  0  0  0  0  0  0  0  0  0
    9.2097    2.1677    0.0000 H   0  0  0  0  0  0  0  0  0  0  0  0
    7.5210    2.1426    0.0000 H   0  0  0  0  0  0  0  0  0  0  0  0
    7.1225    1.4523    0.0000 H   0  0  0  0  0  0  0  0  0  0  0  0
    7.9451   -0.0226    0.0000 H   0  0  0  0  0  0  0  0  0  0  0  0
    8.3437    0.6677    0.0000 H   0  0  0  0  0  0  0  0  0  0  0  0
    6.6550    0.6426    0.0000 H   0  0  0  0  0  0  0  0  0  0  0  0
    6.2565   -0.0477    0.0000 H   0  0  0  0  0  0  0  0  0  0  0  0
   10.9851    8.1426    0.0000 H   0  0  0  0  0  0  0  0  0  0  0  0
   10.5866    7.4523    0.0000 H   0  0  0  0  0  0  0  0  0  0  0  0
    7.0791   -1.5226    0.0000 H   0  0  0  0  0  0  0  0  0  0  0  0
    7.4776   -0.8323    0.0000 H   0  0  0  0  0  0  0  0  0  0  0  0
   11.7532    5.5231    0.0000 H   0  0  0  0  0  0  0  0  0  0  0  0
   12.6002    5.7500    0.0000 H   0  0  0  0  0  0  0  0  0  0  0  0
   12.3732    6.5969    0.0000 H   0  0  0  0  0  0  0  0  0  0  0  0
    5.7890   -0.8574    0.0000 H   0  0  0  0  0  0  0  0  0  0  0  0
    5.3905   -1.5477    0.0000 H   0  0  0  0  0  0  0  0  0  0  0  0
   12.3732    7.5231    0.0000 H   0  0  0  0  0  0  0  0  0  0  0  0
   12.6002    8.3700    0.0000 H   0  0  0  0  0  0  0  0  0  0  0  0
   11.7532    8.5969    0.0000 H   0  0  0  0  0  0  0  0  0  0  0  0
    6.2131   -3.0226    0.0000 H   0  0  0  0  0  0  0  0  0  0  0  0
    6.6116   -2.3323    0.0000 H   0  0  0  0  0  0  0  0  0  0  0  0
    4.9230   -2.3574    0.0000 H   0  0  0  0  0  0  0  0  0  0  0  0
    4.5244   -3.0477    0.0000 H   0  0  0  0  0  0  0  0  0  0  0  0
    5.6720   -5.6300    0.0000 H   0  0  0  0  0  0  0  0  0  0  0  0
    5.6720   -7.2500    0.0000 H   0  0  0  0  0  0  0  0  0  0  0  0
    4.2690   -8.0600    0.0000 H   0  0  0  0  0  0  0  0  0  0  0  0
    2.0000   -5.7500    0.0000 H   0  0  0  0  0  0  0  0  0  0  0  0
    2.5369   -8.0600    0.0000 H   0  0  0  0  0  0  0  0  0  0  0  0
  1 21  1  0  0  0  0
  1 22  1  0  0  0  0
  2 22  2  0  0  0  0
  3 24  1  0  0  0  0
  3 67  1  0  0  0  0
  4 26  1  0  0  0  0
  4 68  1  0  0  0  0
  5  6  1  0  0  0  0
  5  7  1  0  0  0  0
  5 29  1  0  0  0  0
  5 30  1  0  0  0  0
  6  8  1  0  0  0  0
  6 31  1  0  0  0  0
  6 32  1  0  0  0  0
  7  9  1  0  0  0  0
  7 33  1  0  0  0  0
  7 34  1  0  0  0  0
  8 15  1  0  0  0  0
  8 17  1  6  0  0  0
  8 35  1  0  0  0  0
  9 10  1  0  0  0  0
  9 36  1  0  0  0  0
  9 37  1  0  0  0  0
 10 11  1  0  0  0  0
 10 38  1  0  0  0  0
 10 39  1  0  0  0  0
 11 12  1  0  0  0  0
 11 40  1  0  0  0  0
 11 41  1  0  0  0  0
 12 13  1  0  0  0  0
 12 42  1  0  0  0  0
 12 43  1  0  0  0  0
 13 14  1  0  0  0  0
 13 44  1  0  0  0  0
 13 45  1  0  0  0  0
 14 16  1  0  0  0  0
 14 46  1  0  0  0  0
 14 47  1  0  0  0  0
 15 19  1  0  0  0  0
 15 48  1  0  0  0  0
 15 49  1  0  0  0  0
 16 18  1  0  0  0  0
 16 50  1  0  0  0  0
 16 51  1  0  0  0  0
 17 52  1  0  0  0  0
 17 53  1  0  0  0  0
 17 54  1  0  0  0  0
 18 20  1  0  0  0  0
 18 55  1  0  0  0  0
 18 56  1  0  0  0  0
 19 57  1  0  0  0  0
 19 58  1  0  0  0  0
 19 59  1  0  0  0  0
 20 21  1  0  0  0  0
 20 60  1  0  0  0  0
 20 61  1  0  0  0  0
 21 62  1  0  0  0  0
 21 63  1  0  0  0  0
 22 23  1  0  0  0  0
 23 24  2  0  0  0  0
 23 25  1  0  0  0  0
 24 26  1  0  0  0  0
 25 27  2  0  0  0  0
 25 64  1  0  0  0  0
 26 28  2  0  0  0  0
 27 28  1  0  0  0  0
 27 65  1  0  0  0  0
 28 66  1  0  0  0  0
M  END
> <PUBCHEM_COMPOUND_CID>
46899083

> <PUBCHEM_COMPOUND_CANONICALIZED>
1

> <PUBCHEM_CACTVS_COMPLEXITY>
385

> <PUBCHEM_CACTVS_HBOND_ACCEPTOR>
4

> <PUBCHEM_CACTVS_HBOND_DONOR>
2

> <PUBCHEM_CACTVS_ROTATABLE_BOND>
17

> <PUBCHEM_CACTVS_SUBSKEYS>
AAADcfB4OAAAAAAAAAAAAAAAAAAAAAAAAAAwAAAAAAAAAAABAAAAGgAACAAADQSgmAIyDoAABgCIAiDSCAACAAAkIAAIiAEGiMgJJzaCNRqCcUEl4BEJuYfKyPCOAAABAAAIQAAAAAIAABCAAAAAAAAAAA==

> <PUBCHEM_IUPAC_OPENEYE_NAME>
[(14S)-14-methylhexadecyl] 2,3-dihydroxybenzoate

> <PUBCHEM_IUPAC_CAS_NAME>
2,3-dihydroxybenzoic acid [(14S)-14-methylhexadecyl] ester

> <PUBCHEM_IUPAC_NAME_MARKUP>
[(14<I>S</I>)-14-methylhexadecyl] 2,3-dihydroxybenzoate

> <PUBCHEM_IUPAC_NAME>
[(14S)-14-methylhexadecyl] 2,3-dihydroxybenzoate

> <PUBCHEM_IUPAC_SYSTEMATIC_NAME>
[(14S)-14-methylhexadecyl] 2,3-bis(oxidanyl)benzoate

> <PUBCHEM_IUPAC_TRADITIONAL_NAME>
2,3-dihydroxybenzoic acid [(14S)-14-methylhexadecyl] ester

> <PUBCHEM_IUPAC_INCHI>
InChI=1S/C24H40O4/c1-3-20(2)16-13-11-9-7-5-4-6-8-10-12-14-19-28-24(27)21-17-15-18-22(25)23(21)26/h15,17-18,20,25-26H,3-14,16,19H2,1-2H3/t20-/m0/s1

> <PUBCHEM_IUPAC_INCHIKEY>
XGXUFBAHOWHDNU-FQEVSTJZSA-N

> <PUBCHEM_XLOGP3_AA>
9.6

> <PUBCHEM_EXACT_MASS>
392.29266

> <PUBCHEM_MOLECULAR_FORMULA>
C24H40O4

> <PUBCHEM_MOLECULAR_WEIGHT>
392.6

> <PUBCHEM_OPENEYE_CAN_SMILES>
CCC(C)CCCCCCCCCCCCCOC(=O)C1=C(C(=CC=C1)O)O

> <PUBCHEM_OPENEYE_ISO_SMILES>
CC[C@H](C)CCCCCCCCCCCCCOC(=O)C1=C(C(=CC=C1)O)O

> <PUBCHEM_CACTVS_TPSA>
66.8

> <PUBCHEM_MONOISOTOPIC_WEIGHT>
392.29266

> <PUBCHEM_TOTAL_CHARGE>
0

> <PUBCHEM_HEAVY_ATOM_COUNT>
28

> <PUBCHEM_ATOM_DEF_STEREO_COUNT>
1

> <PUBCHEM_ATOM_UDEF_STEREO_COUNT>
0

> <PUBCHEM_BOND_DEF_STEREO_COUNT>
0

> <PUBCHEM_BOND_UDEF_STEREO_COUNT>
0

> <PUBCHEM_ISOTOPIC_ATOM_COUNT>
0

> <PUBCHEM_COMPONENT_COUNT>
1

> <PUBCHEM_CACTVS_TAUTO_COUNT>
-1

> <PUBCHEM_COORDINATE_TYPE>
1
5
255

> <PUBCHEM_BONDANNOTATIONS>
23  24  8
23  25  8
24  26  8
25  27  8
26  28  8
27  28  8
8  17  6

$$$$
