46899165
  -OEChem-09232016352D

 89 89  0     0  0  0  0  0  0999 V2000
    5.1350   -6.9400    0.0000 O   0  0  0  0  0  0  0  0  0  0  0  0
    3.4030   -6.9400    0.0000 O   0  0  0  0  0  0  0  0  0  0  0  0
    2.5369   -8.4400    0.0000 O   0  0  0  0  0  0  0  0  0  0  0  0
    2.5369  -10.4400    0.0000 O   0  0  0  0  0  0  0  0  0  0  0  0
   10.3312    2.0600    0.0000 C   0  0  0  0  0  0  0  0  0  0  0  0
   10.3312    3.0600    0.0000 C   0  0  0  0  0  0  0  0  0  0  0  0
    9.4651    1.5600    0.0000 C   0  0  0  0  0  0  0  0  0  0  0  0
   11.1972    3.5600    0.0000 C   0  0  0  0  0  0  0  0  0  0  0  0
    9.4651    0.5600    0.0000 C   0  0  0  0  0  0  0  0  0  0  0  0
   11.1972    4.5600    0.0000 C   0  0  0  0  0  0  0  0  0  0  0  0
    8.5991    0.0600    0.0000 C   0  0  0  0  0  0  0  0  0  0  0  0
   12.0632    5.0600    0.0000 C   0  0  0  0  0  0  0  0  0  0  0  0
    8.5991   -0.9400    0.0000 C   0  0  0  0  0  0  0  0  0  0  0  0
   12.0632    6.0600    0.0000 C   0  0  0  0  0  0  0  0  0  0  0  0
    7.7331   -1.4400    0.0000 C   0  0  0  0  0  0  0  0  0  0  0  0
   12.9292    6.5600    0.0000 C   0  0  0  0  0  0  0  0  0  0  0  0
    7.7331   -2.4400    0.0000 C   0  0  0  0  0  0  0  0  0  0  0  0
   12.9292    7.5600    0.0000 C   0  0  0  0  0  0  0  0  0  0  0  0
    6.8671   -2.9400    0.0000 C   0  0  0  0  0  0  0  0  0  0  0  0
   13.7953    8.0600    0.0000 C   0  0  0  0  0  0  0  0  0  0  0  0
    6.8671   -3.9400    0.0000 C   0  0  0  0  0  0  0  0  0  0  0  0
   13.7953    9.0600    0.0000 C   0  0  0  0  0  0  0  0  0  0  0  0
    6.0010   -4.4400    0.0000 C   0  0  0  0  0  0  0  0  0  0  0  0
   14.6613    9.5600    0.0000 C   0  0  0  0  0  0  0  0  0  0  0  0
    6.0010   -5.4400    0.0000 C   0  0  0  0  0  0  0  0  0  0  0  0
   14.6613   10.5600    0.0000 C   0  0  0  0  0  0  0  0  0  0  0  0
    5.1350   -5.9400    0.0000 C   0  0  0  0  0  0  0  0  0  0  0  0
   15.5273   11.0600    0.0000 C   0  0  0  0  0  0  0  0  0  0  0  0
    4.2690   -7.4400    0.0000 C   0  0  0  0  0  0  0  0  0  0  0  0
    4.2690   -8.4400    0.0000 C   0  0  0  0  0  0  0  0  0  0  0  0
    3.4030   -8.9400    0.0000 C   0  0  0  0  0  0  0  0  0  0  0  0
    5.1350   -8.9400    0.0000 C   0  0  0  0  0  0  0  0  0  0  0  0
    3.4030   -9.9400    0.0000 C   0  0  0  0  0  0  0  0  0  0  0  0
    5.1350   -9.9400    0.0000 C   0  0  0  0  0  0  0  0  0  0  0  0
    4.2690  -10.4400    0.0000 C   0  0  0  0  0  0  0  0  0  0  0  0
   10.5432    1.4774    0.0000 H   0  0  0  0  0  0  0  0  0  0  0  0
   10.9417    2.1677    0.0000 H   0  0  0  0  0  0  0  0  0  0  0  0
   10.1191    3.6426    0.0000 H   0  0  0  0  0  0  0  0  0  0  0  0
    9.7206    2.9523    0.0000 H   0  0  0  0  0  0  0  0  0  0  0  0
    9.2531    2.1426    0.0000 H   0  0  0  0  0  0  0  0  0  0  0  0
    8.8546    1.4523    0.0000 H   0  0  0  0  0  0  0  0  0  0  0  0
   11.4092    2.9774    0.0000 H   0  0  0  0  0  0  0  0  0  0  0  0
   11.8078    3.6677    0.0000 H   0  0  0  0  0  0  0  0  0  0  0  0
    9.6772   -0.0226    0.0000 H   0  0  0  0  0  0  0  0  0  0  0  0
   10.0757    0.6677    0.0000 H   0  0  0  0  0  0  0  0  0  0  0  0
   10.9851    5.1426    0.0000 H   0  0  0  0  0  0  0  0  0  0  0  0
   10.5866    4.4523    0.0000 H   0  0  0  0  0  0  0  0  0  0  0  0
    8.3871    0.6426    0.0000 H   0  0  0  0  0  0  0  0  0  0  0  0
    7.9885   -0.0477    0.0000 H   0  0  0  0  0  0  0  0  0  0  0  0
   12.2753    4.4774    0.0000 H   0  0  0  0  0  0  0  0  0  0  0  0
   12.6738    5.1677    0.0000 H   0  0  0  0  0  0  0  0  0  0  0  0
    8.8112   -1.5226    0.0000 H   0  0  0  0  0  0  0  0  0  0  0  0
    9.2097   -0.8323    0.0000 H   0  0  0  0  0  0  0  0  0  0  0  0
   11.8512    6.6426    0.0000 H   0  0  0  0  0  0  0  0  0  0  0  0
   11.4526    5.9523    0.0000 H   0  0  0  0  0  0  0  0  0  0  0  0
    7.5210   -0.8574    0.0000 H   0  0  0  0  0  0  0  0  0  0  0  0
    7.1225   -1.5477    0.0000 H   0  0  0  0  0  0  0  0  0  0  0  0
   13.1413    5.9774    0.0000 H   0  0  0  0  0  0  0  0  0  0  0  0
   13.5398    6.6677    0.0000 H   0  0  0  0  0  0  0  0  0  0  0  0
    7.9451   -3.0226    0.0000 H   0  0  0  0  0  0  0  0  0  0  0  0
    8.3437   -2.3323    0.0000 H   0  0  0  0  0  0  0  0  0  0  0  0
   12.7172    8.1426    0.0000 H   0  0  0  0  0  0  0  0  0  0  0  0
   12.3187    7.4523    0.0000 H   0  0  0  0  0  0  0  0  0  0  0  0
    6.6550   -2.3574    0.0000 H   0  0  0  0  0  0  0  0  0  0  0  0
    6.2565   -3.0477    0.0000 H   0  0  0  0  0  0  0  0  0  0  0  0
   14.0073    7.4774    0.0000 H   0  0  0  0  0  0  0  0  0  0  0  0
   14.4058    8.1677    0.0000 H   0  0  0  0  0  0  0  0  0  0  0  0
    7.0791   -4.5226    0.0000 H   0  0  0  0  0  0  0  0  0  0  0  0
    7.4776   -3.8323    0.0000 H   0  0  0  0  0  0  0  0  0  0  0  0
   13.5832    9.6426    0.0000 H   0  0  0  0  0  0  0  0  0  0  0  0
   13.1847    8.9523    0.0000 H   0  0  0  0  0  0  0  0  0  0  0  0
    5.7890   -3.8574    0.0000 H   0  0  0  0  0  0  0  0  0  0  0  0
    5.3905   -4.5477    0.0000 H   0  0  0  0  0  0  0  0  0  0  0  0
   14.8733    8.9774    0.0000 H   0  0  0  0  0  0  0  0  0  0  0  0
   15.2719    9.6677    0.0000 H   0  0  0  0  0  0  0  0  0  0  0  0
    6.2131   -6.0226    0.0000 H   0  0  0  0  0  0  0  0  0  0  0  0
    6.6116   -5.3323    0.0000 H   0  0  0  0  0  0  0  0  0  0  0  0
   14.4492   11.1426    0.0000 H   0  0  0  0  0  0  0  0  0  0  0  0
   14.0507   10.4523    0.0000 H   0  0  0  0  0  0  0  0  0  0  0  0
    4.9230   -5.3574    0.0000 H   0  0  0  0  0  0  0  0  0  0  0  0
    4.5244   -6.0477    0.0000 H   0  0  0  0  0  0  0  0  0  0  0  0
   15.8373   10.5231    0.0000 H   0  0  0  0  0  0  0  0  0  0  0  0
   16.0643   11.3700    0.0000 H   0  0  0  0  0  0  0  0  0  0  0  0
   15.2173   11.5969    0.0000 H   0  0  0  0  0  0  0  0  0  0  0  0
    5.6720   -8.6300    0.0000 H   0  0  0  0  0  0  0  0  0  0  0  0
    5.6720  -10.2500    0.0000 H   0  0  0  0  0  0  0  0  0  0  0  0
    4.2690  -11.0600    0.0000 H   0  0  0  0  0  0  0  0  0  0  0  0
    2.0000   -8.7500    0.0000 H   0  0  0  0  0  0  0  0  0  0  0  0
    2.5369  -11.0600    0.0000 H   0  0  0  0  0  0  0  0  0  0  0  0
  1 27  1  0  0  0  0
  1 29  1  0  0  0  0
  2 29  2  0  0  0  0
  3 31  1  0  0  0  0
  3 88  1  0  0  0  0
  4 33  1  0  0  0  0
  4 89  1  0  0  0  0
  5  6  1  0  0  0  0
  5  7  1  0  0  0  0
  5 36  1  0  0  0  0
  5 37  1  0  0  0  0
  6  8  1  0  0  0  0
  6 38  1  0  0  0  0
  6 39  1  0  0  0  0
  7  9  1  0  0  0  0
  7 40  1  0  0  0  0
  7 41  1  0  0  0  0
  8 10  1  0  0  0  0
  8 42  1  0  0  0  0
  8 43  1  0  0  0  0
  9 11  1  0  0  0  0
  9 44  1  0  0  0  0
  9 45  1  0  0  0  0
 10 12  1  0  0  0  0
 10 46  1  0  0  0  0
 10 47  1  0  0  0  0
 11 13  1  0  0  0  0
 11 48  1  0  0  0  0
 11 49  1  0  0  0  0
 12 14  1  0  0  0  0
 12 50  1  0  0  0  0
 12 51  1  0  0  0  0
 13 15  1  0  0  0  0
 13 52  1  0  0  0  0
 13 53  1  0  0  0  0
 14 16  1  0  0  0  0
 14 54  1  0  0  0  0
 14 55  1  0  0  0  0
 15 17  1  0  0  0  0
 15 56  1  0  0  0  0
 15 57  1  0  0  0  0
 16 18  1  0  0  0  0
 16 58  1  0  0  0  0
 16 59  1  0  0  0  0
 17 19  1  0  0  0  0
 17 60  1  0  0  0  0
 17 61  1  0  0  0  0
 18 20  1  0  0  0  0
 18 62  1  0  0  0  0
 18 63  1  0  0  0  0
 19 21  1  0  0  0  0
 19 64  1  0  0  0  0
 19 65  1  0  0  0  0
 20 22  1  0  0  0  0
 20 66  1  0  0  0  0
 20 67  1  0  0  0  0
 21 23  1  0  0  0  0
 21 68  1  0  0  0  0
 21 69  1  0  0  0  0
 22 24  1  0  0  0  0
 22 70  1  0  0  0  0
 22 71  1  0  0  0  0
 23 25  1  0  0  0  0
 23 72  1  0  0  0  0
 23 73  1  0  0  0  0
 24 26  1  0  0  0  0
 24 74  1  0  0  0  0
 24 75  1  0  0  0  0
 25 27  1  0  0  0  0
 25 76  1  0  0  0  0
 25 77  1  0  0  0  0
 26 28  1  0  0  0  0
 26 78  1  0  0  0  0
 26 79  1  0  0  0  0
 27 80  1  0  0  0  0
 27 81  1  0  0  0  0
 28 82  1  0  0  0  0
 28 83  1  0  0  0  0
 28 84  1  0  0  0  0
 29 30  1  0  0  0  0
 30 31  2  0  0  0  0
 30 32  1  0  0  0  0
 31 33  1  0  0  0  0
 32 34  2  0  0  0  0
 32 85  1  0  0  0  0
 33 35  2  0  0  0  0
 34 35  1  0  0  0  0
 34 86  1  0  0  0  0
 35 87  1  0  0  0  0
M  END
> <PUBCHEM_COMPOUND_CID>
46899165

> <PUBCHEM_COMPOUND_CANONICALIZED>
1

> <PUBCHEM_CACTVS_COMPLEXITY>
467

> <PUBCHEM_CACTVS_HBOND_ACCEPTOR>
4

> <PUBCHEM_CACTVS_HBOND_DONOR>
2

> <PUBCHEM_CACTVS_ROTATABLE_BOND>
25

> <PUBCHEM_CACTVS_SUBSKEYS>
AAADcfB4OAAAAAAAAAAAAAAAAAAAAAAAAAAwAAAAAAAAAAABAAAAGgAACAAADASgmAIyDoAABgCIAiDSCAACAAAkIAAIiAEGiMgJJzaCNRqCcUEl4BEJuYfKyLCOAAABAAAIQAAAAAIAABCAAAAAAAAAAA==

> <PUBCHEM_IUPAC_OPENEYE_NAME>
tetracosyl 2,3-dihydroxybenzoate

> <PUBCHEM_IUPAC_CAS_NAME>
2,3-dihydroxybenzoic acid tetracosyl ester

> <PUBCHEM_IUPAC_NAME_MARKUP>
tetracosyl 2,3-dihydroxybenzoate

> <PUBCHEM_IUPAC_NAME>
tetracosyl 2,3-dihydroxybenzoate

> <PUBCHEM_IUPAC_SYSTEMATIC_NAME>
tetracosyl 2,3-bis(oxidanyl)benzoate

> <PUBCHEM_IUPAC_TRADITIONAL_NAME>
2,3-dihydroxybenzoic acid lignoceryl ester

> <PUBCHEM_IUPAC_INCHI>
InChI=1S/C31H54O4/c1-2-3-4-5-6-7-8-9-10-11-12-13-14-15-16-17-18-19-20-21-22-23-27-35-31(34)28-25-24-26-29(32)30(28)33/h24-26,32-33H,2-23,27H2,1H3

> <PUBCHEM_IUPAC_INCHIKEY>
GYCLAVXWKNBJIC-UHFFFAOYSA-N

> <PUBCHEM_XLOGP3>
15.1

> <PUBCHEM_EXACT_MASS>
490.40221

> <PUBCHEM_MOLECULAR_FORMULA>
C31H54O4

> <PUBCHEM_MOLECULAR_WEIGHT>
490.8

> <PUBCHEM_OPENEYE_CAN_SMILES>
CCCCCCCCCCCCCCCCCCCCCCCCOC(=O)C1=C(C(=CC=C1)O)O

> <PUBCHEM_OPENEYE_ISO_SMILES>
CCCCCCCCCCCCCCCCCCCCCCCCOC(=O)C1=C(C(=CC=C1)O)O

> <PUBCHEM_CACTVS_TPSA>
66.8

> <PUBCHEM_MONOISOTOPIC_WEIGHT>
490.40221

> <PUBCHEM_TOTAL_CHARGE>
0

> <PUBCHEM_HEAVY_ATOM_COUNT>
35

> <PUBCHEM_ATOM_DEF_STEREO_COUNT>
0

> <PUBCHEM_ATOM_UDEF_STEREO_COUNT>
0

> <PUBCHEM_BOND_DEF_STEREO_COUNT>
0

> <PUBCHEM_BOND_UDEF_STEREO_COUNT>
0

> <PUBCHEM_ISOTOPIC_ATOM_COUNT>
0

> <PUBCHEM_COMPONENT_COUNT>
1

> <PUBCHEM_CACTVS_TAUTO_COUNT>
-1

> <PUBCHEM_COORDINATE_TYPE>
1
5
255

> <PUBCHEM_BONDANNOTATIONS>
30  31  8
30  32  8
31  33  8
32  34  8
33  35  8
34  35  8

$$$$
