46899163
  -OEChem-09232016292D

 80 80  0     1  0  0  0  0  0999 V2000
    5.1350   -5.4400    0.0000 O   0  0  0  0  0  0  0  0  0  0  0  0
    3.4030   -5.4400    0.0000 O   0  0  0  0  0  0  0  0  0  0  0  0
    2.5369   -6.9400    0.0000 O   0  0  0  0  0  0  0  0  0  0  0  0
    2.5369   -8.9400    0.0000 O   0  0  0  0  0  0  0  0  0  0  0  0
   11.1972    6.0600    0.0000 C   0  0  0  0  0  0  0  0  0  0  0  0
   11.1972    5.0600    0.0000 C   0  0  0  0  0  0  0  0  0  0  0  0
   12.0632    6.5600    0.0000 C   0  0  0  0  0  0  0  0  0  0  0  0
   10.3312    4.5600    0.0000 C   0  0  0  0  0  0  0  0  0  0  0  0
   12.0632    7.5600    0.0000 C   0  0  0  0  0  0  0  0  0  0  0  0
   10.3312    3.5600    0.0000 C   0  0  0  0  0  0  0  0  0  0  0  0
    9.4651    3.0600    0.0000 C   0  0  0  0  0  0  0  0  0  0  0  0
   12.9292    8.0600    0.0000 C   0  0  2  0  0  0  0  0  0  0  0  0
    9.4651    2.0600    0.0000 C   0  0  0  0  0  0  0  0  0  0  0  0
    8.5991    1.5600    0.0000 C   0  0  0  0  0  0  0  0  0  0  0  0
    8.5991    0.5600    0.0000 C   0  0  0  0  0  0  0  0  0  0  0  0
    7.7331    0.0600    0.0000 C   0  0  0  0  0  0  0  0  0  0  0  0
    7.7331   -0.9400    0.0000 C   0  0  0  0  0  0  0  0  0  0  0  0
   12.9292    9.0600    0.0000 C   0  0  0  0  0  0  0  0  0  0  0  0
    6.8671   -1.4400    0.0000 C   0  0  0  0  0  0  0  0  0  0  0  0
    6.8671   -2.4400    0.0000 C   0  0  0  0  0  0  0  0  0  0  0  0
   13.7953    7.5600    0.0000 C   0  0  0  0  0  0  0  0  0  0  0  0
    6.0010   -2.9400    0.0000 C   0  0  0  0  0  0  0  0  0  0  0  0
   13.7953    9.5600    0.0000 C   0  0  0  0  0  0  0  0  0  0  0  0
    6.0010   -3.9400    0.0000 C   0  0  0  0  0  0  0  0  0  0  0  0
    5.1350   -4.4400    0.0000 C   0  0  0  0  0  0  0  0  0  0  0  0
    4.2690   -5.9400    0.0000 C   0  0  0  0  0  0  0  0  0  0  0  0
    4.2690   -6.9400    0.0000 C   0  0  0  0  0  0  0  0  0  0  0  0
    3.4030   -7.4400    0.0000 C   0  0  0  0  0  0  0  0  0  0  0  0
    5.1350   -7.4400    0.0000 C   0  0  0  0  0  0  0  0  0  0  0  0
    3.4030   -8.4400    0.0000 C   0  0  0  0  0  0  0  0  0  0  0  0
    5.1350   -8.4400    0.0000 C   0  0  0  0  0  0  0  0  0  0  0  0
    4.2690   -8.9400    0.0000 C   0  0  0  0  0  0  0  0  0  0  0  0
   10.9851    6.6426    0.0000 H   0  0  0  0  0  0  0  0  0  0  0  0
   10.5866    5.9523    0.0000 H   0  0  0  0  0  0  0  0  0  0  0  0
   11.4092    4.4774    0.0000 H   0  0  0  0  0  0  0  0  0  0  0  0
   11.8078    5.1677    0.0000 H   0  0  0  0  0  0  0  0  0  0  0  0
   12.2753    5.9774    0.0000 H   0  0  0  0  0  0  0  0  0  0  0  0
   12.6738    6.6677    0.0000 H   0  0  0  0  0  0  0  0  0  0  0  0
   10.1191    5.1426    0.0000 H   0  0  0  0  0  0  0  0  0  0  0  0
    9.7206    4.4523    0.0000 H   0  0  0  0  0  0  0  0  0  0  0  0
   11.8512    8.1426    0.0000 H   0  0  0  0  0  0  0  0  0  0  0  0
   11.4526    7.4523    0.0000 H   0  0  0  0  0  0  0  0  0  0  0  0
   10.5432    2.9774    0.0000 H   0  0  0  0  0  0  0  0  0  0  0  0
   10.9417    3.6677    0.0000 H   0  0  0  0  0  0  0  0  0  0  0  0
    9.2531    3.6426    0.0000 H   0  0  0  0  0  0  0  0  0  0  0  0
    8.8546    2.9523    0.0000 H   0  0  0  0  0  0  0  0  0  0  0  0
   13.4662    8.3700    0.0000 H   0  0  0  0  0  0  0  0  0  0  0  0
    9.6772    1.4774    0.0000 H   0  0  0  0  0  0  0  0  0  0  0  0
   10.0757    2.1677    0.0000 H   0  0  0  0  0  0  0  0  0  0  0  0
    8.3871    2.1426    0.0000 H   0  0  0  0  0  0  0  0  0  0  0  0
    7.9885    1.4523    0.0000 H   0  0  0  0  0  0  0  0  0  0  0  0
    8.8112   -0.0226    0.0000 H   0  0  0  0  0  0  0  0  0  0  0  0
    9.2097    0.6677    0.0000 H   0  0  0  0  0  0  0  0  0  0  0  0
    7.5210    0.6426    0.0000 H   0  0  0  0  0  0  0  0  0  0  0  0
    7.1225   -0.0477    0.0000 H   0  0  0  0  0  0  0  0  0  0  0  0
    7.9451   -1.5226    0.0000 H   0  0  0  0  0  0  0  0  0  0  0  0
    8.3437   -0.8323    0.0000 H   0  0  0  0  0  0  0  0  0  0  0  0
   12.7172    9.6426    0.0000 H   0  0  0  0  0  0  0  0  0  0  0  0
   12.3187    8.9523    0.0000 H   0  0  0  0  0  0  0  0  0  0  0  0
    6.6550   -0.8574    0.0000 H   0  0  0  0  0  0  0  0  0  0  0  0
    6.2565   -1.5477    0.0000 H   0  0  0  0  0  0  0  0  0  0  0  0
    7.0791   -3.0226    0.0000 H   0  0  0  0  0  0  0  0  0  0  0  0
    7.4776   -2.3323    0.0000 H   0  0  0  0  0  0  0  0  0  0  0  0
   13.4853    7.0231    0.0000 H   0  0  0  0  0  0  0  0  0  0  0  0
   14.3322    7.2500    0.0000 H   0  0  0  0  0  0  0  0  0  0  0  0
   14.1053    8.0969    0.0000 H   0  0  0  0  0  0  0  0  0  0  0  0
    5.7890   -2.3574    0.0000 H   0  0  0  0  0  0  0  0  0  0  0  0
    5.3905   -3.0477    0.0000 H   0  0  0  0  0  0  0  0  0  0  0  0
   14.1053    9.0231    0.0000 H   0  0  0  0  0  0  0  0  0  0  0  0
   14.3322    9.8700    0.0000 H   0  0  0  0  0  0  0  0  0  0  0  0
   13.4853   10.0969    0.0000 H   0  0  0  0  0  0  0  0  0  0  0  0
    6.2131   -4.5226    0.0000 H   0  0  0  0  0  0  0  0  0  0  0  0
    6.6116   -3.8323    0.0000 H   0  0  0  0  0  0  0  0  0  0  0  0
    4.9230   -3.8574    0.0000 H   0  0  0  0  0  0  0  0  0  0  0  0
    4.5244   -4.5477    0.0000 H   0  0  0  0  0  0  0  0  0  0  0  0
    5.6720   -7.1300    0.0000 H   0  0  0  0  0  0  0  0  0  0  0  0
    5.6720   -8.7500    0.0000 H   0  0  0  0  0  0  0  0  0  0  0  0
    4.2690   -9.5600    0.0000 H   0  0  0  0  0  0  0  0  0  0  0  0
    2.0000   -7.2500    0.0000 H   0  0  0  0  0  0  0  0  0  0  0  0
    2.5369   -9.5600    0.0000 H   0  0  0  0  0  0  0  0  0  0  0  0
  1 25  1  0  0  0  0
  1 26  1  0  0  0  0
  2 26  2  0  0  0  0
  3 28  1  0  0  0  0
  3 79  1  0  0  0  0
  4 30  1  0  0  0  0
  4 80  1  0  0  0  0
  5  6  1  0  0  0  0
  5  7  1  0  0  0  0
  5 33  1  0  0  0  0
  5 34  1  0  0  0  0
  6  8  1  0  0  0  0
  6 35  1  0  0  0  0
  6 36  1  0  0  0  0
  7  9  1  0  0  0  0
  7 37  1  0  0  0  0
  7 38  1  0  0  0  0
  8 10  1  0  0  0  0
  8 39  1  0  0  0  0
  8 40  1  0  0  0  0
  9 12  1  0  0  0  0
  9 41  1  0  0  0  0
  9 42  1  0  0  0  0
 10 11  1  0  0  0  0
 10 43  1  0  0  0  0
 10 44  1  0  0  0  0
 11 13  1  0  0  0  0
 11 45  1  0  0  0  0
 11 46  1  0  0  0  0
 12 18  1  0  0  0  0
 12 21  1  6  0  0  0
 12 47  1  0  0  0  0
 13 14  1  0  0  0  0
 13 48  1  0  0  0  0
 13 49  1  0  0  0  0
 14 15  1  0  0  0  0
 14 50  1  0  0  0  0
 14 51  1  0  0  0  0
 15 16  1  0  0  0  0
 15 52  1  0  0  0  0
 15 53  1  0  0  0  0
 16 17  1  0  0  0  0
 16 54  1  0  0  0  0
 16 55  1  0  0  0  0
 17 19  1  0  0  0  0
 17 56  1  0  0  0  0
 17 57  1  0  0  0  0
 18 23  1  0  0  0  0
 18 58  1  0  0  0  0
 18 59  1  0  0  0  0
 19 20  1  0  0  0  0
 19 60  1  0  0  0  0
 19 61  1  0  0  0  0
 20 22  1  0  0  0  0
 20 62  1  0  0  0  0
 20 63  1  0  0  0  0
 21 64  1  0  0  0  0
 21 65  1  0  0  0  0
 21 66  1  0  0  0  0
 22 24  1  0  0  0  0
 22 67  1  0  0  0  0
 22 68  1  0  0  0  0
 23 69  1  0  0  0  0
 23 70  1  0  0  0  0
 23 71  1  0  0  0  0
 24 25  1  0  0  0  0
 24 72  1  0  0  0  0
 24 73  1  0  0  0  0
 25 74  1  0  0  0  0
 25 75  1  0  0  0  0
 26 27  1  0  0  0  0
 27 28  2  0  0  0  0
 27 29  1  0  0  0  0
 28 30  1  0  0  0  0
 29 31  2  0  0  0  0
 29 76  1  0  0  0  0
 30 32  2  0  0  0  0
 31 32  1  0  0  0  0
 31 77  1  0  0  0  0
 32 78  1  0  0  0  0
M  END
> <PUBCHEM_COMPOUND_CID>
46899163

> <PUBCHEM_COMPOUND_CANONICALIZED>
1

> <PUBCHEM_CACTVS_COMPLEXITY>
439

> <PUBCHEM_CACTVS_HBOND_ACCEPTOR>
4

> <PUBCHEM_CACTVS_HBOND_DONOR>
2

> <PUBCHEM_CACTVS_ROTATABLE_BOND>
21

> <PUBCHEM_CACTVS_SUBSKEYS>
AAADcfB4OAAAAAAAAAAAAAAAAAAAAAAAAAAwAAAAAAAAAAABAAAAGgAACAAADQSgmAIyDoAABgCIAiDSCAACAAAkIAAIiAEGiMgJJzaCNRqCcUEl4BEJuYfKyPCOAAABAAAIQAAAAAIAABCAAAAAAAAAAA==

> <PUBCHEM_IUPAC_OPENEYE_NAME>
[(18S)-18-methylicosyl] 2,3-dihydroxybenzoate

> <PUBCHEM_IUPAC_CAS_NAME>
2,3-dihydroxybenzoic acid [(18S)-18-methyleicosyl] ester

> <PUBCHEM_IUPAC_NAME_MARKUP>
[(18<I>S</I>)-18-methylicosyl] 2,3-dihydroxybenzoate

> <PUBCHEM_IUPAC_NAME>
[(18S)-18-methylicosyl] 2,3-dihydroxybenzoate

> <PUBCHEM_IUPAC_SYSTEMATIC_NAME>
[(18S)-18-methylicosyl] 2,3-bis(oxidanyl)benzoate

> <PUBCHEM_IUPAC_TRADITIONAL_NAME>
2,3-dihydroxybenzoic acid [(18S)-18-methyleicosyl] ester

> <PUBCHEM_IUPAC_INCHI>
InChI=1S/C28H48O4/c1-3-24(2)20-17-15-13-11-9-7-5-4-6-8-10-12-14-16-18-23-32-28(31)25-21-19-22-26(29)27(25)30/h19,21-22,24,29-30H,3-18,20,23H2,1-2H3/t24-/m0/s1

> <PUBCHEM_IUPAC_INCHIKEY>
ZUMMJNOHRJORPD-DEOSSOPVSA-N

> <PUBCHEM_XLOGP3_AA>
11.8

> <PUBCHEM_EXACT_MASS>
448.35526

> <PUBCHEM_MOLECULAR_FORMULA>
C28H48O4

> <PUBCHEM_MOLECULAR_WEIGHT>
448.7

> <PUBCHEM_OPENEYE_CAN_SMILES>
CCC(C)CCCCCCCCCCCCCCCCCOC(=O)C1=C(C(=CC=C1)O)O

> <PUBCHEM_OPENEYE_ISO_SMILES>
CC[C@H](C)CCCCCCCCCCCCCCCCCOC(=O)C1=C(C(=CC=C1)O)O

> <PUBCHEM_CACTVS_TPSA>
66.8

> <PUBCHEM_MONOISOTOPIC_WEIGHT>
448.35526

> <PUBCHEM_TOTAL_CHARGE>
0

> <PUBCHEM_HEAVY_ATOM_COUNT>
32

> <PUBCHEM_ATOM_DEF_STEREO_COUNT>
1

> <PUBCHEM_ATOM_UDEF_STEREO_COUNT>
0

> <PUBCHEM_BOND_DEF_STEREO_COUNT>
0

> <PUBCHEM_BOND_UDEF_STEREO_COUNT>
0

> <PUBCHEM_ISOTOPIC_ATOM_COUNT>
0

> <PUBCHEM_COMPONENT_COUNT>
1

> <PUBCHEM_CACTVS_TAUTO_COUNT>
-1

> <PUBCHEM_COORDINATE_TYPE>
1
5
255

> <PUBCHEM_BONDANNOTATIONS>
12  21  6
27  28  8
27  29  8
28  30  8
29  31  8
30  32  8
31  32  8

$$$$
