46899161
  -OEChem-09232016262D

 74 74  0     1  0  0  0  0  0999 V2000
    5.1350   -4.6900    0.0000 O   0  0  0  0  0  0  0  0  0  0  0  0
    3.4030   -4.6900    0.0000 O   0  0  0  0  0  0  0  0  0  0  0  0
    2.5369   -6.1900    0.0000 O   0  0  0  0  0  0  0  0  0  0  0  0
    2.5369   -8.1900    0.0000 O   0  0  0  0  0  0  0  0  0  0  0  0
   10.3312    5.3100    0.0000 C   0  0  0  0  0  0  0  0  0  0  0  0
   11.1972    5.8100    0.0000 C   0  0  0  0  0  0  0  0  0  0  0  0
   10.3312    4.3100    0.0000 C   0  0  0  0  0  0  0  0  0  0  0  0
   11.1972    6.8100    0.0000 C   0  0  0  0  0  0  0  0  0  0  0  0
    9.4651    3.8100    0.0000 C   0  0  0  0  0  0  0  0  0  0  0  0
   12.0632    7.3100    0.0000 C   0  0  2  0  0  0  0  0  0  0  0  0
    9.4651    2.8100    0.0000 C   0  0  0  0  0  0  0  0  0  0  0  0
    8.5991    2.3100    0.0000 C   0  0  0  0  0  0  0  0  0  0  0  0
    8.5991    1.3100    0.0000 C   0  0  0  0  0  0  0  0  0  0  0  0
    7.7331    0.8100    0.0000 C   0  0  0  0  0  0  0  0  0  0  0  0
    7.7331   -0.1900    0.0000 C   0  0  0  0  0  0  0  0  0  0  0  0
    6.8671   -0.6900    0.0000 C   0  0  0  0  0  0  0  0  0  0  0  0
   12.0632    8.3100    0.0000 C   0  0  0  0  0  0  0  0  0  0  0  0
    6.8671   -1.6900    0.0000 C   0  0  0  0  0  0  0  0  0  0  0  0
   12.9292    6.8100    0.0000 C   0  0  0  0  0  0  0  0  0  0  0  0
    6.0010   -2.1900    0.0000 C   0  0  0  0  0  0  0  0  0  0  0  0
   12.9292    8.8100    0.0000 C   0  0  0  0  0  0  0  0  0  0  0  0
    6.0010   -3.1900    0.0000 C   0  0  0  0  0  0  0  0  0  0  0  0
    5.1350   -3.6900    0.0000 C   0  0  0  0  0  0  0  0  0  0  0  0
    4.2690   -5.1900    0.0000 C   0  0  0  0  0  0  0  0  0  0  0  0
    4.2690   -6.1900    0.0000 C   0  0  0  0  0  0  0  0  0  0  0  0
    3.4030   -6.6900    0.0000 C   0  0  0  0  0  0  0  0  0  0  0  0
    5.1350   -6.6900    0.0000 C   0  0  0  0  0  0  0  0  0  0  0  0
    3.4030   -7.6900    0.0000 C   0  0  0  0  0  0  0  0  0  0  0  0
    5.1350   -7.6900    0.0000 C   0  0  0  0  0  0  0  0  0  0  0  0
    4.2690   -8.1900    0.0000 C   0  0  0  0  0  0  0  0  0  0  0  0
   10.1191    5.8926    0.0000 H   0  0  0  0  0  0  0  0  0  0  0  0
    9.7206    5.2023    0.0000 H   0  0  0  0  0  0  0  0  0  0  0  0
   11.4092    5.2274    0.0000 H   0  0  0  0  0  0  0  0  0  0  0  0
   11.8078    5.9177    0.0000 H   0  0  0  0  0  0  0  0  0  0  0  0
   10.5432    3.7274    0.0000 H   0  0  0  0  0  0  0  0  0  0  0  0
   10.9417    4.4177    0.0000 H   0  0  0  0  0  0  0  0  0  0  0  0
   10.9851    7.3926    0.0000 H   0  0  0  0  0  0  0  0  0  0  0  0
   10.5866    6.7023    0.0000 H   0  0  0  0  0  0  0  0  0  0  0  0
    9.2531    4.3926    0.0000 H   0  0  0  0  0  0  0  0  0  0  0  0
    8.8546    3.7023    0.0000 H   0  0  0  0  0  0  0  0  0  0  0  0
   12.6002    7.6200    0.0000 H   0  0  0  0  0  0  0  0  0  0  0  0
    9.6772    2.2274    0.0000 H   0  0  0  0  0  0  0  0  0  0  0  0
   10.0757    2.9177    0.0000 H   0  0  0  0  0  0  0  0  0  0  0  0
    8.3871    2.8926    0.0000 H   0  0  0  0  0  0  0  0  0  0  0  0
    7.9885    2.2023    0.0000 H   0  0  0  0  0  0  0  0  0  0  0  0
    8.8112    0.7274    0.0000 H   0  0  0  0  0  0  0  0  0  0  0  0
    9.2097    1.4177    0.0000 H   0  0  0  0  0  0  0  0  0  0  0  0
    7.5210    1.3926    0.0000 H   0  0  0  0  0  0  0  0  0  0  0  0
    7.1225    0.7023    0.0000 H   0  0  0  0  0  0  0  0  0  0  0  0
    7.9451   -0.7726    0.0000 H   0  0  0  0  0  0  0  0  0  0  0  0
    8.3437   -0.0823    0.0000 H   0  0  0  0  0  0  0  0  0  0  0  0
    6.6550   -0.1074    0.0000 H   0  0  0  0  0  0  0  0  0  0  0  0
    6.2565   -0.7977    0.0000 H   0  0  0  0  0  0  0  0  0  0  0  0
   11.8512    8.8926    0.0000 H   0  0  0  0  0  0  0  0  0  0  0  0
   11.4526    8.2023    0.0000 H   0  0  0  0  0  0  0  0  0  0  0  0
    7.0791   -2.2726    0.0000 H   0  0  0  0  0  0  0  0  0  0  0  0
    7.4776   -1.5823    0.0000 H   0  0  0  0  0  0  0  0  0  0  0  0
   12.6192    6.2731    0.0000 H   0  0  0  0  0  0  0  0  0  0  0  0
   13.4662    6.5000    0.0000 H   0  0  0  0  0  0  0  0  0  0  0  0
   13.2392    7.3469    0.0000 H   0  0  0  0  0  0  0  0  0  0  0  0
    5.7890   -1.6074    0.0000 H   0  0  0  0  0  0  0  0  0  0  0  0
    5.3905   -2.2977    0.0000 H   0  0  0  0  0  0  0  0  0  0  0  0
   13.2392    8.2731    0.0000 H   0  0  0  0  0  0  0  0  0  0  0  0
   13.4662    9.1200    0.0000 H   0  0  0  0  0  0  0  0  0  0  0  0
   12.6192    9.3469    0.0000 H   0  0  0  0  0  0  0  0  0  0  0  0
    6.2131   -3.7726    0.0000 H   0  0  0  0  0  0  0  0  0  0  0  0
    6.6116   -3.0823    0.0000 H   0  0  0  0  0  0  0  0  0  0  0  0
    4.9230   -3.1074    0.0000 H   0  0  0  0  0  0  0  0  0  0  0  0
    4.5244   -3.7977    0.0000 H   0  0  0  0  0  0  0  0  0  0  0  0
    5.6720   -6.3800    0.0000 H   0  0  0  0  0  0  0  0  0  0  0  0
    5.6720   -8.0000    0.0000 H   0  0  0  0  0  0  0  0  0  0  0  0
    4.2690   -8.8100    0.0000 H   0  0  0  0  0  0  0  0  0  0  0  0
    2.0000   -6.5000    0.0000 H   0  0  0  0  0  0  0  0  0  0  0  0
    2.5369   -8.8100    0.0000 H   0  0  0  0  0  0  0  0  0  0  0  0
  1 23  1  0  0  0  0
  1 24  1  0  0  0  0
  2 24  2  0  0  0  0
  3 26  1  0  0  0  0
  3 73  1  0  0  0  0
  4 28  1  0  0  0  0
  4 74  1  0  0  0  0
  5  6  1  0  0  0  0
  5  7  1  0  0  0  0
  5 31  1  0  0  0  0
  5 32  1  0  0  0  0
  6  8  1  0  0  0  0
  6 33  1  0  0  0  0
  6 34  1  0  0  0  0
  7  9  1  0  0  0  0
  7 35  1  0  0  0  0
  7 36  1  0  0  0  0
  8 10  1  0  0  0  0
  8 37  1  0  0  0  0
  8 38  1  0  0  0  0
  9 11  1  0  0  0  0
  9 39  1  0  0  0  0
  9 40  1  0  0  0  0
 10 17  1  0  0  0  0
 10 19  1  6  0  0  0
 10 41  1  0  0  0  0
 11 12  1  0  0  0  0
 11 42  1  0  0  0  0
 11 43  1  0  0  0  0
 12 13  1  0  0  0  0
 12 44  1  0  0  0  0
 12 45  1  0  0  0  0
 13 14  1  0  0  0  0
 13 46  1  0  0  0  0
 13 47  1  0  0  0  0
 14 15  1  0  0  0  0
 14 48  1  0  0  0  0
 14 49  1  0  0  0  0
 15 16  1  0  0  0  0
 15 50  1  0  0  0  0
 15 51  1  0  0  0  0
 16 18  1  0  0  0  0
 16 52  1  0  0  0  0
 16 53  1  0  0  0  0
 17 21  1  0  0  0  0
 17 54  1  0  0  0  0
 17 55  1  0  0  0  0
 18 20  1  0  0  0  0
 18 56  1  0  0  0  0
 18 57  1  0  0  0  0
 19 58  1  0  0  0  0
 19 59  1  0  0  0  0
 19 60  1  0  0  0  0
 20 22  1  0  0  0  0
 20 61  1  0  0  0  0
 20 62  1  0  0  0  0
 21 63  1  0  0  0  0
 21 64  1  0  0  0  0
 21 65  1  0  0  0  0
 22 23  1  0  0  0  0
 22 66  1  0  0  0  0
 22 67  1  0  0  0  0
 23 68  1  0  0  0  0
 23 69  1  0  0  0  0
 24 25  1  0  0  0  0
 25 26  2  0  0  0  0
 25 27  1  0  0  0  0
 26 28  1  0  0  0  0
 27 29  2  0  0  0  0
 27 70  1  0  0  0  0
 28 30  2  0  0  0  0
 29 30  1  0  0  0  0
 29 71  1  0  0  0  0
 30 72  1  0  0  0  0
M  END
> <PUBCHEM_COMPOUND_CID>
46899161

> <PUBCHEM_COMPOUND_CANONICALIZED>
1

> <PUBCHEM_CACTVS_COMPLEXITY>
412

> <PUBCHEM_CACTVS_HBOND_ACCEPTOR>
4

> <PUBCHEM_CACTVS_HBOND_DONOR>
2

> <PUBCHEM_CACTVS_ROTATABLE_BOND>
19

> <PUBCHEM_CACTVS_SUBSKEYS>
AAADcfB4OAAAAAAAAAAAAAAAAAAAAAAAAAAwAAAAAAAAAAABAAAAGgAACAAADQSgmAIyDoAABgCIAiDSCAACAAAkIAAIiAEGiMgJJzaCNRqCcUEl4BEJuYfKyPCOAAABAAAIQAAAAAIAABCAAAAAAAAAAA==

> <PUBCHEM_IUPAC_OPENEYE_NAME>
[(16S)-16-methyloctadecyl] 2,3-dihydroxybenzoate

> <PUBCHEM_IUPAC_CAS_NAME>
2,3-dihydroxybenzoic acid [(16S)-16-methyloctadecyl] ester

> <PUBCHEM_IUPAC_NAME_MARKUP>
[(16<I>S</I>)-16-methyloctadecyl] 2,3-dihydroxybenzoate

> <PUBCHEM_IUPAC_NAME>
[(16S)-16-methyloctadecyl] 2,3-dihydroxybenzoate

> <PUBCHEM_IUPAC_SYSTEMATIC_NAME>
[(16S)-16-methyloctadecyl] 2,3-bis(oxidanyl)benzoate

> <PUBCHEM_IUPAC_TRADITIONAL_NAME>
2,3-dihydroxybenzoic acid [(16S)-16-methyloctadecyl] ester

> <PUBCHEM_IUPAC_INCHI>
InChI=1S/C26H44O4/c1-3-22(2)18-15-13-11-9-7-5-4-6-8-10-12-14-16-21-30-26(29)23-19-17-20-24(27)25(23)28/h17,19-20,22,27-28H,3-16,18,21H2,1-2H3/t22-/m0/s1

> <PUBCHEM_IUPAC_INCHIKEY>
ZIYGPPWKTJHONC-QFIPXVFZSA-N

> <PUBCHEM_XLOGP3_AA>
10.7

> <PUBCHEM_EXACT_MASS>
420.32396

> <PUBCHEM_MOLECULAR_FORMULA>
C26H44O4

> <PUBCHEM_MOLECULAR_WEIGHT>
420.6

> <PUBCHEM_OPENEYE_CAN_SMILES>
CCC(C)CCCCCCCCCCCCCCCOC(=O)C1=C(C(=CC=C1)O)O

> <PUBCHEM_OPENEYE_ISO_SMILES>
CC[C@H](C)CCCCCCCCCCCCCCCOC(=O)C1=C(C(=CC=C1)O)O

> <PUBCHEM_CACTVS_TPSA>
66.8

> <PUBCHEM_MONOISOTOPIC_WEIGHT>
420.32396

> <PUBCHEM_TOTAL_CHARGE>
0

> <PUBCHEM_HEAVY_ATOM_COUNT>
30

> <PUBCHEM_ATOM_DEF_STEREO_COUNT>
1

> <PUBCHEM_ATOM_UDEF_STEREO_COUNT>
0

> <PUBCHEM_BOND_DEF_STEREO_COUNT>
0

> <PUBCHEM_BOND_UDEF_STEREO_COUNT>
0

> <PUBCHEM_ISOTOPIC_ATOM_COUNT>
0

> <PUBCHEM_COMPONENT_COUNT>
1

> <PUBCHEM_CACTVS_TAUTO_COUNT>
-1

> <PUBCHEM_COORDINATE_TYPE>
1
5
255

> <PUBCHEM_BONDANNOTATIONS>
10  19  6
25  26  8
25  27  8
26  28  8
27  29  8
28  30  8
29  30  8

$$$$
