52948704
  -OEChem-09232016272D

 77 77  0     1  0  0  0  0  0999 V2000
    5.1350   -5.1900    0.0000 O   0  0  0  0  0  0  0  0  0  0  0  0
    3.4030   -5.1900    0.0000 O   0  0  0  0  0  0  0  0  0  0  0  0
    2.5369   -6.6900    0.0000 O   0  0  0  0  0  0  0  0  0  0  0  0
    2.5369   -8.6900    0.0000 O   0  0  0  0  0  0  0  0  0  0  0  0
   11.1972    5.3100    0.0000 C   0  0  0  0  0  0  0  0  0  0  0  0
   10.3312    4.8100    0.0000 C   0  0  0  0  0  0  0  0  0  0  0  0
   11.1972    6.3100    0.0000 C   0  0  0  0  0  0  0  0  0  0  0  0
   10.3312    3.8100    0.0000 C   0  0  0  0  0  0  0  0  0  0  0  0
   12.0632    6.8100    0.0000 C   0  0  0  0  0  0  0  0  0  0  0  0
    9.4651    3.3100    0.0000 C   0  0  0  0  0  0  0  0  0  0  0  0
   12.0632    7.8100    0.0000 C   0  0  2  0  0  0  0  0  0  0  0  0
    9.4651    2.3100    0.0000 C   0  0  0  0  0  0  0  0  0  0  0  0
    8.5991    1.8100    0.0000 C   0  0  0  0  0  0  0  0  0  0  0  0
    8.5991    0.8100    0.0000 C   0  0  0  0  0  0  0  0  0  0  0  0
    7.7331    0.3100    0.0000 C   0  0  0  0  0  0  0  0  0  0  0  0
    7.7331   -0.6900    0.0000 C   0  0  0  0  0  0  0  0  0  0  0  0
    6.8671   -1.1900    0.0000 C   0  0  0  0  0  0  0  0  0  0  0  0
   12.9292    8.3100    0.0000 C   0  0  0  0  0  0  0  0  0  0  0  0
    6.8671   -2.1900    0.0000 C   0  0  0  0  0  0  0  0  0  0  0  0
   11.1972    8.3100    0.0000 C   0  0  0  0  0  0  0  0  0  0  0  0
    6.0010   -2.6900    0.0000 C   0  0  0  0  0  0  0  0  0  0  0  0
   12.9292    9.3100    0.0000 C   0  0  0  0  0  0  0  0  0  0  0  0
    6.0010   -3.6900    0.0000 C   0  0  0  0  0  0  0  0  0  0  0  0
    5.1350   -4.1900    0.0000 C   0  0  0  0  0  0  0  0  0  0  0  0
    4.2690   -5.6900    0.0000 C   0  0  0  0  0  0  0  0  0  0  0  0
    4.2690   -6.6900    0.0000 C   0  0  0  0  0  0  0  0  0  0  0  0
    3.4030   -7.1900    0.0000 C   0  0  0  0  0  0  0  0  0  0  0  0
    5.1350   -7.1900    0.0000 C   0  0  0  0  0  0  0  0  0  0  0  0
    3.4030   -8.1900    0.0000 C   0  0  0  0  0  0  0  0  0  0  0  0
    5.1350   -8.1900    0.0000 C   0  0  0  0  0  0  0  0  0  0  0  0
    4.2690   -8.6900    0.0000 C   0  0  0  0  0  0  0  0  0  0  0  0
   11.4092    4.7274    0.0000 H   0  0  0  0  0  0  0  0  0  0  0  0
   11.8078    5.4177    0.0000 H   0  0  0  0  0  0  0  0  0  0  0  0
   10.1191    5.3926    0.0000 H   0  0  0  0  0  0  0  0  0  0  0  0
    9.7206    4.7023    0.0000 H   0  0  0  0  0  0  0  0  0  0  0  0
   10.9851    6.8926    0.0000 H   0  0  0  0  0  0  0  0  0  0  0  0
   10.5866    6.2023    0.0000 H   0  0  0  0  0  0  0  0  0  0  0  0
   10.5432    3.2274    0.0000 H   0  0  0  0  0  0  0  0  0  0  0  0
   10.9417    3.9177    0.0000 H   0  0  0  0  0  0  0  0  0  0  0  0
   12.2753    6.2274    0.0000 H   0  0  0  0  0  0  0  0  0  0  0  0
   12.6738    6.9177    0.0000 H   0  0  0  0  0  0  0  0  0  0  0  0
    9.2531    3.8926    0.0000 H   0  0  0  0  0  0  0  0  0  0  0  0
    8.8546    3.2023    0.0000 H   0  0  0  0  0  0  0  0  0  0  0  0
   11.5263    7.5000    0.0000 H   0  0  0  0  0  0  0  0  0  0  0  0
    9.6772    1.7274    0.0000 H   0  0  0  0  0  0  0  0  0  0  0  0
   10.0757    2.4177    0.0000 H   0  0  0  0  0  0  0  0  0  0  0  0
    8.3871    2.3926    0.0000 H   0  0  0  0  0  0  0  0  0  0  0  0
    7.9885    1.7023    0.0000 H   0  0  0  0  0  0  0  0  0  0  0  0
    8.8112    0.2274    0.0000 H   0  0  0  0  0  0  0  0  0  0  0  0
    9.2097    0.9177    0.0000 H   0  0  0  0  0  0  0  0  0  0  0  0
    7.5210    0.8926    0.0000 H   0  0  0  0  0  0  0  0  0  0  0  0
    7.1225    0.2023    0.0000 H   0  0  0  0  0  0  0  0  0  0  0  0
    7.9451   -1.2726    0.0000 H   0  0  0  0  0  0  0  0  0  0  0  0
    8.3437   -0.5823    0.0000 H   0  0  0  0  0  0  0  0  0  0  0  0
    6.6550   -0.6074    0.0000 H   0  0  0  0  0  0  0  0  0  0  0  0
    6.2565   -1.2977    0.0000 H   0  0  0  0  0  0  0  0  0  0  0  0
   13.1413    7.7274    0.0000 H   0  0  0  0  0  0  0  0  0  0  0  0
   13.5398    8.4177    0.0000 H   0  0  0  0  0  0  0  0  0  0  0  0
    7.0791   -2.7726    0.0000 H   0  0  0  0  0  0  0  0  0  0  0  0
    7.4776   -2.0823    0.0000 H   0  0  0  0  0  0  0  0  0  0  0  0
   11.5072    8.8469    0.0000 H   0  0  0  0  0  0  0  0  0  0  0  0
   10.6603    8.6200    0.0000 H   0  0  0  0  0  0  0  0  0  0  0  0
   10.8872    7.7731    0.0000 H   0  0  0  0  0  0  0  0  0  0  0  0
    5.7890   -2.1074    0.0000 H   0  0  0  0  0  0  0  0  0  0  0  0
    5.3905   -2.7977    0.0000 H   0  0  0  0  0  0  0  0  0  0  0  0
   13.5492    9.3100    0.0000 H   0  0  0  0  0  0  0  0  0  0  0  0
   12.9292    9.9300    0.0000 H   0  0  0  0  0  0  0  0  0  0  0  0
   12.3092    9.3100    0.0000 H   0  0  0  0  0  0  0  0  0  0  0  0
    6.2131   -4.2726    0.0000 H   0  0  0  0  0  0  0  0  0  0  0  0
    6.6116   -3.5823    0.0000 H   0  0  0  0  0  0  0  0  0  0  0  0
    4.9230   -3.6074    0.0000 H   0  0  0  0  0  0  0  0  0  0  0  0
    4.5244   -4.2977    0.0000 H   0  0  0  0  0  0  0  0  0  0  0  0
    5.6720   -6.8800    0.0000 H   0  0  0  0  0  0  0  0  0  0  0  0
    5.6720   -8.5000    0.0000 H   0  0  0  0  0  0  0  0  0  0  0  0
    4.2690   -9.3100    0.0000 H   0  0  0  0  0  0  0  0  0  0  0  0
    2.0000   -7.0000    0.0000 H   0  0  0  0  0  0  0  0  0  0  0  0
    2.5369   -9.3100    0.0000 H   0  0  0  0  0  0  0  0  0  0  0  0
  1 24  1  0  0  0  0
  1 25  1  0  0  0  0
  2 25  2  0  0  0  0
  3 27  1  0  0  0  0
  3 76  1  0  0  0  0
  4 29  1  0  0  0  0
  4 77  1  0  0  0  0
  5  6  1  0  0  0  0
  5  7  1  0  0  0  0
  5 32  1  0  0  0  0
  5 33  1  0  0  0  0
  6  8  1  0  0  0  0
  6 34  1  0  0  0  0
  6 35  1  0  0  0  0
  7  9  1  0  0  0  0
  7 36  1  0  0  0  0
  7 37  1  0  0  0  0
  8 10  1  0  0  0  0
  8 38  1  0  0  0  0
  8 39  1  0  0  0  0
  9 11  1  0  0  0  0
  9 40  1  0  0  0  0
  9 41  1  0  0  0  0
 10 12  1  0  0  0  0
 10 42  1  0  0  0  0
 10 43  1  0  0  0  0
 11 18  1  0  0  0  0
 11 20  1  1  0  0  0
 11 44  1  0  0  0  0
 12 13  1  0  0  0  0
 12 45  1  0  0  0  0
 12 46  1  0  0  0  0
 13 14  1  0  0  0  0
 13 47  1  0  0  0  0
 13 48  1  0  0  0  0
 14 15  1  0  0  0  0
 14 49  1  0  0  0  0
 14 50  1  0  0  0  0
 15 16  1  0  0  0  0
 15 51  1  0  0  0  0
 15 52  1  0  0  0  0
 16 17  1  0  0  0  0
 16 53  1  0  0  0  0
 16 54  1  0  0  0  0
 17 19  1  0  0  0  0
 17 55  1  0  0  0  0
 17 56  1  0  0  0  0
 18 22  1  0  0  0  0
 18 57  1  0  0  0  0
 18 58  1  0  0  0  0
 19 21  1  0  0  0  0
 19 59  1  0  0  0  0
 19 60  1  0  0  0  0
 20 61  1  0  0  0  0
 20 62  1  0  0  0  0
 20 63  1  0  0  0  0
 21 23  1  0  0  0  0
 21 64  1  0  0  0  0
 21 65  1  0  0  0  0
 22 66  1  0  0  0  0
 22 67  1  0  0  0  0
 22 68  1  0  0  0  0
 23 24  1  0  0  0  0
 23 69  1  0  0  0  0
 23 70  1  0  0  0  0
 24 71  1  0  0  0  0
 24 72  1  0  0  0  0
 25 26  1  0  0  0  0
 26 27  2  0  0  0  0
 26 28  1  0  0  0  0
 27 29  1  0  0  0  0
 28 30  2  0  0  0  0
 28 73  1  0  0  0  0
 29 31  2  0  0  0  0
 30 31  1  0  0  0  0
 30 74  1  0  0  0  0
 31 75  1  0  0  0  0
M  END
> <PUBCHEM_COMPOUND_CID>
52948704

> <PUBCHEM_COMPOUND_CANONICALIZED>
1

> <PUBCHEM_CACTVS_COMPLEXITY>
426

> <PUBCHEM_CACTVS_HBOND_ACCEPTOR>
4

> <PUBCHEM_CACTVS_HBOND_DONOR>
2

> <PUBCHEM_CACTVS_ROTATABLE_BOND>
20

> <PUBCHEM_CACTVS_SUBSKEYS>
AAADcfB4OAAAAAAAAAAAAAAAAAAAAAAAAAAwAAAAAAAAAAABAAAAGgAACAAADQSgmAIyDoAABgCIAiDSCAACAAAkIAAIiAEGiMgJJzaCNRqCcUEl4BEJuYfKyPCOAAABAAAIQAAAAAIAABCAAAAAAAAAAA==

> <PUBCHEM_IUPAC_OPENEYE_NAME>
[(17S)-17-methylnonadecyl] 2,3-dihydroxybenzoate

> <PUBCHEM_IUPAC_CAS_NAME>
2,3-dihydroxybenzoic acid [(17S)-17-methylnonadecyl] ester

> <PUBCHEM_IUPAC_NAME_MARKUP>
[(17<I>S</I>)-17-methylnonadecyl] 2,3-dihydroxybenzoate

> <PUBCHEM_IUPAC_NAME>
[(17S)-17-methylnonadecyl] 2,3-dihydroxybenzoate

> <PUBCHEM_IUPAC_SYSTEMATIC_NAME>
[(17S)-17-methylnonadecyl] 2,3-bis(oxidanyl)benzoate

> <PUBCHEM_IUPAC_TRADITIONAL_NAME>
2,3-dihydroxybenzoic acid [(17S)-17-methylnonadecyl] ester

> <PUBCHEM_IUPAC_INCHI>
InChI=1S/C27H46O4/c1-3-23(2)19-16-14-12-10-8-6-4-5-7-9-11-13-15-17-22-31-27(30)24-20-18-21-25(28)26(24)29/h18,20-21,23,28-29H,3-17,19,22H2,1-2H3/t23-/m0/s1

> <PUBCHEM_IUPAC_INCHIKEY>
PXSMFASSTNYNAH-QHCPKHFHSA-N

> <PUBCHEM_XLOGP3_AA>
11.2

> <PUBCHEM_EXACT_MASS>
434.33961

> <PUBCHEM_MOLECULAR_FORMULA>
C27H46O4

> <PUBCHEM_MOLECULAR_WEIGHT>
434.7

> <PUBCHEM_OPENEYE_CAN_SMILES>
CCC(C)CCCCCCCCCCCCCCCCOC(=O)C1=C(C(=CC=C1)O)O

> <PUBCHEM_OPENEYE_ISO_SMILES>
CC[C@H](C)CCCCCCCCCCCCCCCCOC(=O)C1=C(C(=CC=C1)O)O

> <PUBCHEM_CACTVS_TPSA>
66.8

> <PUBCHEM_MONOISOTOPIC_WEIGHT>
434.33961

> <PUBCHEM_TOTAL_CHARGE>
0

> <PUBCHEM_HEAVY_ATOM_COUNT>
31

> <PUBCHEM_ATOM_DEF_STEREO_COUNT>
1

> <PUBCHEM_ATOM_UDEF_STEREO_COUNT>
0

> <PUBCHEM_BOND_DEF_STEREO_COUNT>
0

> <PUBCHEM_BOND_UDEF_STEREO_COUNT>
0

> <PUBCHEM_ISOTOPIC_ATOM_COUNT>
0

> <PUBCHEM_COMPONENT_COUNT>
1

> <PUBCHEM_CACTVS_TAUTO_COUNT>
-1

> <PUBCHEM_COORDINATE_TYPE>
1
5
255

> <PUBCHEM_BONDANNOTATIONS>
11  20  5
26  27  8
26  28  8
27  29  8
28  30  8
29  31  8
30  31  8

$$$$
