46899164
  -OEChem-09232016342D

 80 80  0     0  0  0  0  0  0999 V2000
    5.1350   -5.9400    0.0000 O   0  0  0  0  0  0  0  0  0  0  0  0
    3.4030   -5.9400    0.0000 O   0  0  0  0  0  0  0  0  0  0  0  0
    2.5369   -7.4400    0.0000 O   0  0  0  0  0  0  0  0  0  0  0  0
    2.5369   -9.4400    0.0000 O   0  0  0  0  0  0  0  0  0  0  0  0
    9.4651    2.5600    0.0000 C   0  0  0  0  0  0  0  0  0  0  0  0
    9.4651    1.5600    0.0000 C   0  0  0  0  0  0  0  0  0  0  0  0
   10.3312    3.0600    0.0000 C   0  0  0  0  0  0  0  0  0  0  0  0
    8.5991    1.0600    0.0000 C   0  0  0  0  0  0  0  0  0  0  0  0
   10.3312    4.0600    0.0000 C   0  0  0  0  0  0  0  0  0  0  0  0
    8.5991    0.0600    0.0000 C   0  0  0  0  0  0  0  0  0  0  0  0
   11.1972    4.5600    0.0000 C   0  0  0  0  0  0  0  0  0  0  0  0
    7.7331   -0.4400    0.0000 C   0  0  0  0  0  0  0  0  0  0  0  0
   11.1972    5.5600    0.0000 C   0  0  0  0  0  0  0  0  0  0  0  0
    7.7331   -1.4400    0.0000 C   0  0  0  0  0  0  0  0  0  0  0  0
   12.0632    6.0600    0.0000 C   0  0  0  0  0  0  0  0  0  0  0  0
    6.8671   -1.9400    0.0000 C   0  0  0  0  0  0  0  0  0  0  0  0
   12.0632    7.0600    0.0000 C   0  0  0  0  0  0  0  0  0  0  0  0
    6.8671   -2.9400    0.0000 C   0  0  0  0  0  0  0  0  0  0  0  0
   12.9292    7.5600    0.0000 C   0  0  0  0  0  0  0  0  0  0  0  0
    6.0010   -3.4400    0.0000 C   0  0  0  0  0  0  0  0  0  0  0  0
   12.9292    8.5600    0.0000 C   0  0  0  0  0  0  0  0  0  0  0  0
    6.0010   -4.4400    0.0000 C   0  0  0  0  0  0  0  0  0  0  0  0
   13.7953    9.0600    0.0000 C   0  0  0  0  0  0  0  0  0  0  0  0
    5.1350   -4.9400    0.0000 C   0  0  0  0  0  0  0  0  0  0  0  0
   13.7953   10.0600    0.0000 C   0  0  0  0  0  0  0  0  0  0  0  0
    4.2690   -6.4400    0.0000 C   0  0  0  0  0  0  0  0  0  0  0  0
    4.2690   -7.4400    0.0000 C   0  0  0  0  0  0  0  0  0  0  0  0
    3.4030   -7.9400    0.0000 C   0  0  0  0  0  0  0  0  0  0  0  0
    5.1350   -7.9400    0.0000 C   0  0  0  0  0  0  0  0  0  0  0  0
    3.4030   -8.9400    0.0000 C   0  0  0  0  0  0  0  0  0  0  0  0
    5.1350   -8.9400    0.0000 C   0  0  0  0  0  0  0  0  0  0  0  0
    4.2690   -9.4400    0.0000 C   0  0  0  0  0  0  0  0  0  0  0  0
    9.2531    3.1426    0.0000 H   0  0  0  0  0  0  0  0  0  0  0  0
    8.8546    2.4523    0.0000 H   0  0  0  0  0  0  0  0  0  0  0  0
    9.6772    0.9774    0.0000 H   0  0  0  0  0  0  0  0  0  0  0  0
   10.0757    1.6677    0.0000 H   0  0  0  0  0  0  0  0  0  0  0  0
   10.5432    2.4774    0.0000 H   0  0  0  0  0  0  0  0  0  0  0  0
   10.9417    3.1677    0.0000 H   0  0  0  0  0  0  0  0  0  0  0  0
    8.3871    1.6426    0.0000 H   0  0  0  0  0  0  0  0  0  0  0  0
    7.9885    0.9523    0.0000 H   0  0  0  0  0  0  0  0  0  0  0  0
   10.1191    4.6426    0.0000 H   0  0  0  0  0  0  0  0  0  0  0  0
    9.7206    3.9523    0.0000 H   0  0  0  0  0  0  0  0  0  0  0  0
    8.8112   -0.5226    0.0000 H   0  0  0  0  0  0  0  0  0  0  0  0
    9.2097    0.1677    0.0000 H   0  0  0  0  0  0  0  0  0  0  0  0
   11.4092    3.9774    0.0000 H   0  0  0  0  0  0  0  0  0  0  0  0
   11.8078    4.6677    0.0000 H   0  0  0  0  0  0  0  0  0  0  0  0
    7.5210    0.1426    0.0000 H   0  0  0  0  0  0  0  0  0  0  0  0
    7.1225   -0.5477    0.0000 H   0  0  0  0  0  0  0  0  0  0  0  0
   10.9851    6.1426    0.0000 H   0  0  0  0  0  0  0  0  0  0  0  0
   10.5866    5.4523    0.0000 H   0  0  0  0  0  0  0  0  0  0  0  0
    7.9451   -2.0226    0.0000 H   0  0  0  0  0  0  0  0  0  0  0  0
    8.3437   -1.3323    0.0000 H   0  0  0  0  0  0  0  0  0  0  0  0
   12.2753    5.4774    0.0000 H   0  0  0  0  0  0  0  0  0  0  0  0
   12.6738    6.1677    0.0000 H   0  0  0  0  0  0  0  0  0  0  0  0
    6.6550   -1.3574    0.0000 H   0  0  0  0  0  0  0  0  0  0  0  0
    6.2565   -2.0477    0.0000 H   0  0  0  0  0  0  0  0  0  0  0  0
   11.8512    7.6426    0.0000 H   0  0  0  0  0  0  0  0  0  0  0  0
   11.4526    6.9523    0.0000 H   0  0  0  0  0  0  0  0  0  0  0  0
    7.0791   -3.5226    0.0000 H   0  0  0  0  0  0  0  0  0  0  0  0
    7.4776   -2.8323    0.0000 H   0  0  0  0  0  0  0  0  0  0  0  0
   13.1413    6.9774    0.0000 H   0  0  0  0  0  0  0  0  0  0  0  0
   13.5398    7.6677    0.0000 H   0  0  0  0  0  0  0  0  0  0  0  0
    5.7890   -2.8574    0.0000 H   0  0  0  0  0  0  0  0  0  0  0  0
    5.3905   -3.5477    0.0000 H   0  0  0  0  0  0  0  0  0  0  0  0
   12.7172    9.1426    0.0000 H   0  0  0  0  0  0  0  0  0  0  0  0
   12.3187    8.4523    0.0000 H   0  0  0  0  0  0  0  0  0  0  0  0
    6.2131   -5.0226    0.0000 H   0  0  0  0  0  0  0  0  0  0  0  0
    6.6116   -4.3323    0.0000 H   0  0  0  0  0  0  0  0  0  0  0  0
   14.0073    8.4774    0.0000 H   0  0  0  0  0  0  0  0  0  0  0  0
   14.4058    9.1677    0.0000 H   0  0  0  0  0  0  0  0  0  0  0  0
    4.9230   -4.3574    0.0000 H   0  0  0  0  0  0  0  0  0  0  0  0
    4.5244   -5.0477    0.0000 H   0  0  0  0  0  0  0  0  0  0  0  0
   14.4153   10.0600    0.0000 H   0  0  0  0  0  0  0  0  0  0  0  0
   13.7953   10.6800    0.0000 H   0  0  0  0  0  0  0  0  0  0  0  0
   13.1753   10.0600    0.0000 H   0  0  0  0  0  0  0  0  0  0  0  0
    5.6720   -7.6300    0.0000 H   0  0  0  0  0  0  0  0  0  0  0  0
    5.6720   -9.2500    0.0000 H   0  0  0  0  0  0  0  0  0  0  0  0
    4.2690  -10.0600    0.0000 H   0  0  0  0  0  0  0  0  0  0  0  0
    2.0000   -7.7500    0.0000 H   0  0  0  0  0  0  0  0  0  0  0  0
    2.5369  -10.0600    0.0000 H   0  0  0  0  0  0  0  0  0  0  0  0
  1 24  1  0  0  0  0
  1 26  1  0  0  0  0
  2 26  2  0  0  0  0
  3 28  1  0  0  0  0
  3 79  1  0  0  0  0
  4 30  1  0  0  0  0
  4 80  1  0  0  0  0
  5  6  1  0  0  0  0
  5  7  1  0  0  0  0
  5 33  1  0  0  0  0
  5 34  1  0  0  0  0
  6  8  1  0  0  0  0
  6 35  1  0  0  0  0
  6 36  1  0  0  0  0
  7  9  1  0  0  0  0
  7 37  1  0  0  0  0
  7 38  1  0  0  0  0
  8 10  1  0  0  0  0
  8 39  1  0  0  0  0
  8 40  1  0  0  0  0
  9 11  1  0  0  0  0
  9 41  1  0  0  0  0
  9 42  1  0  0  0  0
 10 12  1  0  0  0  0
 10 43  1  0  0  0  0
 10 44  1  0  0  0  0
 11 13  1  0  0  0  0
 11 45  1  0  0  0  0
 11 46  1  0  0  0  0
 12 14  1  0  0  0  0
 12 47  1  0  0  0  0
 12 48  1  0  0  0  0
 13 15  1  0  0  0  0
 13 49  1  0  0  0  0
 13 50  1  0  0  0  0
 14 16  1  0  0  0  0
 14 51  1  0  0  0  0
 14 52  1  0  0  0  0
 15 17  1  0  0  0  0
 15 53  1  0  0  0  0
 15 54  1  0  0  0  0
 16 18  1  0  0  0  0
 16 55  1  0  0  0  0
 16 56  1  0  0  0  0
 17 19  1  0  0  0  0
 17 57  1  0  0  0  0
 17 58  1  0  0  0  0
 18 20  1  0  0  0  0
 18 59  1  0  0  0  0
 18 60  1  0  0  0  0
 19 21  1  0  0  0  0
 19 61  1  0  0  0  0
 19 62  1  0  0  0  0
 20 22  1  0  0  0  0
 20 63  1  0  0  0  0
 20 64  1  0  0  0  0
 21 23  1  0  0  0  0
 21 65  1  0  0  0  0
 21 66  1  0  0  0  0
 22 24  1  0  0  0  0
 22 67  1  0  0  0  0
 22 68  1  0  0  0  0
 23 25  1  0  0  0  0
 23 69  1  0  0  0  0
 23 70  1  0  0  0  0
 24 71  1  0  0  0  0
 24 72  1  0  0  0  0
 25 73  1  0  0  0  0
 25 74  1  0  0  0  0
 25 75  1  0  0  0  0
 26 27  1  0  0  0  0
 27 28  2  0  0  0  0
 27 29  1  0  0  0  0
 28 30  1  0  0  0  0
 29 31  2  0  0  0  0
 29 76  1  0  0  0  0
 30 32  2  0  0  0  0
 31 32  1  0  0  0  0
 31 77  1  0  0  0  0
 32 78  1  0  0  0  0
M  END
> <PUBCHEM_COMPOUND_CID>
46899164

> <PUBCHEM_COMPOUND_CANONICALIZED>
1

> <PUBCHEM_CACTVS_COMPLEXITY>
426

> <PUBCHEM_CACTVS_HBOND_ACCEPTOR>
4

> <PUBCHEM_CACTVS_HBOND_DONOR>
2

> <PUBCHEM_CACTVS_ROTATABLE_BOND>
22

> <PUBCHEM_CACTVS_SUBSKEYS>
AAADcfB4OAAAAAAAAAAAAAAAAAAAAAAAAAAwAAAAAAAAAAABAAAAGgAACAAADASgmAIyDoAABgCIAiDSCAACAAAkIAAIiAEGiMgJJzaCNRqCcUEl4BEJuYfKyLCOAAABAAAIQAAAAAIAABCAAAAAAAAAAA==

> <PUBCHEM_IUPAC_OPENEYE_NAME>
henicosyl 2,3-dihydroxybenzoate

> <PUBCHEM_IUPAC_CAS_NAME>
2,3-dihydroxybenzoic acid heneicosyl ester

> <PUBCHEM_IUPAC_NAME_MARKUP>
henicosyl 2,3-dihydroxybenzoate

> <PUBCHEM_IUPAC_NAME>
henicosyl 2,3-dihydroxybenzoate

> <PUBCHEM_IUPAC_SYSTEMATIC_NAME>
henicosyl 2,3-bis(oxidanyl)benzoate

> <PUBCHEM_IUPAC_TRADITIONAL_NAME>
2,3-dihydroxybenzoic acid heneicosyl ester

> <PUBCHEM_IUPAC_INCHI>
InChI=1S/C28H48O4/c1-2-3-4-5-6-7-8-9-10-11-12-13-14-15-16-17-18-19-20-24-32-28(31)25-22-21-23-26(29)27(25)30/h21-23,29-30H,2-20,24H2,1H3

> <PUBCHEM_IUPAC_INCHIKEY>
BFWBTIXVUPMKPV-UHFFFAOYSA-N

> <PUBCHEM_XLOGP3>
13.5

> <PUBCHEM_EXACT_MASS>
448.35526

> <PUBCHEM_MOLECULAR_FORMULA>
C28H48O4

> <PUBCHEM_MOLECULAR_WEIGHT>
448.7

> <PUBCHEM_OPENEYE_CAN_SMILES>
CCCCCCCCCCCCCCCCCCCCCOC(=O)C1=C(C(=CC=C1)O)O

> <PUBCHEM_OPENEYE_ISO_SMILES>
CCCCCCCCCCCCCCCCCCCCCOC(=O)C1=C(C(=CC=C1)O)O

> <PUBCHEM_CACTVS_TPSA>
66.8

> <PUBCHEM_MONOISOTOPIC_WEIGHT>
448.35526

> <PUBCHEM_TOTAL_CHARGE>
0

> <PUBCHEM_HEAVY_ATOM_COUNT>
32

> <PUBCHEM_ATOM_DEF_STEREO_COUNT>
0

> <PUBCHEM_ATOM_UDEF_STEREO_COUNT>
0

> <PUBCHEM_BOND_DEF_STEREO_COUNT>
0

> <PUBCHEM_BOND_UDEF_STEREO_COUNT>
0

> <PUBCHEM_ISOTOPIC_ATOM_COUNT>
0

> <PUBCHEM_COMPONENT_COUNT>
1

> <PUBCHEM_CACTVS_TAUTO_COUNT>
-1

> <PUBCHEM_COORDINATE_TYPE>
1
5
255

> <PUBCHEM_BONDANNOTATIONS>
27  28  8
27  29  8
28  30  8
29  31  8
30  32  8
31  32  8

$$$$
