151505
  -OEChem-11202013103D

 37 38  0     1  0  0  0  0  0999 V2000
    0.7862   -0.6122    0.1904 O   0  0  0  0  0  0  0  0  0  0  0  0
   -0.5516    1.2030   -0.4087 O   0  0  0  0  0  0  0  0  0  0  0  0
    4.1667    1.7199    0.2108 O   0  0  0  0  0  0  0  0  0  0  0  0
    4.4068   -1.1591    0.1135 O   0  0  0  0  0  0  0  0  0  0  0  0
    1.7613    2.6042   -1.2427 O   0  0  0  0  0  0  0  0  0  0  0  0
    0.8001   -3.3521    0.4114 O   0  0  0  0  0  0  0  0  0  0  0  0
   -3.5583    1.0074    2.3585 O   0  0  0  0  0  0  0  0  0  0  0  0
   -1.2895    0.9419    2.2364 O   0  0  0  0  0  0  0  0  0  0  0  0
    3.1861    0.8613   -0.3737 C   0  0  1  0  0  0  0  0  0  0  0  0
    3.1968   -0.4605    0.3945 C   0  0  1  0  0  0  0  0  0  0  0  0
    1.8144    1.5321   -0.3018 C   0  0  2  0  0  0  0  0  0  0  0  0
    2.0044   -1.3318   -0.0074 C   0  0  1  0  0  0  0  0  0  0  0  0
    0.6950    0.5461   -0.6358 C   0  0  1  0  0  0  0  0  0  0  0  0
    1.9278   -2.6048    0.8295 C   0  0  0  0  0  0  0  0  0  0  0  0
   -1.6821    0.4713   -0.6493 C   0  0  0  0  0  0  0  0  0  0  0  0
   -2.6025    0.2302    0.3673 C   0  0  0  0  0  0  0  0  0  0  0  0
   -1.9009   -0.0297   -1.9299 C   0  0  0  0  0  0  0  0  0  0  0  0
   -3.7499   -0.5172    0.1013 C   0  0  0  0  0  0  0  0  0  0  0  0
   -3.0483   -0.7769   -2.1959 C   0  0  0  0  0  0  0  0  0  0  0  0
   -3.9727   -1.0206   -1.1804 C   0  0  0  0  0  0  0  0  0  0  0  0
   -2.3898    0.7476    1.7119 C   0  0  0  0  0  0  0  0  0  0  0  0
    3.4883    0.7118   -1.4176 H   0  0  0  0  0  0  0  0  0  0  0  0
    3.1789   -0.2557    1.4720 H   0  0  0  0  0  0  0  0  0  0  0  0
    1.6583    1.9726    0.6902 H   0  0  0  0  0  0  0  0  0  0  0  0
    2.0683   -1.6246   -1.0643 H   0  0  0  0  0  0  0  0  0  0  0  0
    0.7668    0.2564   -1.6923 H   0  0  0  0  0  0  0  0  0  0  0  0
    1.8020   -2.3779    1.8935 H   0  0  0  0  0  0  0  0  0  0  0  0
    2.8189   -3.2264    0.7043 H   0  0  0  0  0  0  0  0  0  0  0  0
    5.0224    1.2602    0.1618 H   0  0  0  0  0  0  0  0  0  0  0  0
    4.4281   -1.3515   -0.8394 H   0  0  0  0  0  0  0  0  0  0  0  0
    1.8995    2.2333   -2.1310 H   0  0  0  0  0  0  0  0  0  0  0  0
    0.0158   -2.7873    0.5201 H   0  0  0  0  0  0  0  0  0  0  0  0
   -1.2045    0.1655   -2.7402 H   0  0  0  0  0  0  0  0  0  0  0  0
   -4.4825   -0.7348    0.8741 H   0  0  0  0  0  0  0  0  0  0  0  0
   -3.2240   -1.1657   -3.1946 H   0  0  0  0  0  0  0  0  0  0  0  0
   -4.8650   -1.6041   -1.3874 H   0  0  0  0  0  0  0  0  0  0  0  0
   -3.4056    1.3556    3.2629 H   0  0  0  0  0  0  0  0  0  0  0  0
  1 12  1  0  0  0  0
  1 13  1  0  0  0  0
  2 13  1  0  0  0  0
  2 15  1  0  0  0  0
  3  9  1  0  0  0  0
  3 29  1  0  0  0  0
  4 10  1  0  0  0  0
  4 30  1  0  0  0  0
  5 11  1  0  0  0  0
  5 31  1  0  0  0  0
  6 14  1  0  0  0  0
  6 32  1  0  0  0  0
  7 21  1  0  0  0  0
  7 37  1  0  0  0  0
  8 21  2  0  0  0  0
  9 10  1  0  0  0  0
  9 11  1  0  0  0  0
  9 22  1  0  0  0  0
 10 12  1  0  0  0  0
 10 23  1  0  0  0  0
 11 13  1  0  0  0  0
 11 24  1  0  0  0  0
 12 14  1  0  0  0  0
 12 25  1  0  0  0  0
 13 26  1  0  0  0  0
 14 27  1  0  0  0  0
 14 28  1  0  0  0  0
 15 16  1  0  0  0  0
 15 17  2  0  0  0  0
 16 18  2  0  0  0  0
 16 21  1  0  0  0  0
 17 19  1  0  0  0  0
 17 33  1  0  0  0  0
 18 20  1  0  0  0  0
 18 34  1  0  0  0  0
 19 20  2  0  0  0  0
 19 35  1  0  0  0  0
 20 36  1  0  0  0  0
M  END
> <PUBCHEM_COMPOUND_CID>
151505

> <PUBCHEM_CONFORMER_RMSD>
0.8

> <PUBCHEM_CONFORMER_DIVERSEORDER>
1
61
57
101
12
82
62
8
92
27
103
3
67
75
65
54
66
89
34
74
53
55
6
10
78
98
100
81
63
77
91
73
18
51
25
45
90
32
35
47
71
72
11
36
21
7
59
68
97
94
23
95
2
60
49
30
44
70
31
56
76
102
96
16
22
58
13
83
64
80
9
39
38
48
99
4
24
20
15
43
42
14
26
37
87
33
88
86
17
5
84
69
28
52
29
19
46
79
40
93
85
41
50

> <PUBCHEM_MMFF94_PARTIAL_CHARGES>
30
1 -0.56
10 0.28
11 0.28
12 0.28
13 0.56
14 0.28
15 0.08
16 0.09
17 -0.15
18 -0.15
19 -0.15
2 -0.36
20 -0.15
21 0.63
29 0.4
3 -0.68
30 0.4
31 0.4
32 0.4
33 0.15
34 0.15
35 0.15
36 0.15
37 0.5
4 -0.68
5 -0.68
6 -0.68
7 -0.65
8 -0.57
9 0.28

> <PUBCHEM_EFFECTIVE_ROTOR_COUNT>
5.2

> <PUBCHEM_PHARMACOPHORE_FEATURES>
15
1 1 acceptor
1 2 acceptor
1 3 acceptor
1 3 donor
1 4 acceptor
1 4 donor
1 5 acceptor
1 5 donor
1 6 acceptor
1 6 donor
1 7 acceptor
1 8 acceptor
3 7 8 21 anion
6 1 9 10 11 12 13 rings
6 15 16 17 18 19 20 rings

> <PUBCHEM_HEAVY_ATOM_COUNT>
21

> <PUBCHEM_ATOM_DEF_STEREO_COUNT>
4

> <PUBCHEM_ATOM_UDEF_STEREO_COUNT>
1

> <PUBCHEM_BOND_DEF_STEREO_COUNT>
0

> <PUBCHEM_BOND_UDEF_STEREO_COUNT>
0

> <PUBCHEM_ISOTOPIC_ATOM_COUNT>
0

> <PUBCHEM_COMPONENT_COUNT>
1

> <PUBCHEM_CACTVS_TAUTO_COUNT>
1

> <PUBCHEM_CONFORMER_ID>
00024FD100000001

> <PUBCHEM_MMFF94_ENERGY>
69.4579

> <PUBCHEM_FEATURE_SELFOVERLAP>
76.249

> <PUBCHEM_SHAPE_FINGERPRINT>
10366900 7 17240197720590071902
11578080 2 17842522272277429025
11615757 297 18411976966394341046
11640471 11 17988374667207330945
12236239 1 18130788979699090637
12553582 1 18118688721012730418
12596599 1 18272938184849559414
12788726 201 17704355498553689243
13032168 30 18126557053632783663
13538477 17 17632298934637895633
13583140 156 18339939172905085257
13764800 53 15913053071371672585
13911987 19 17969225706158858612
13965767 371 17484549766153918857
14787075 74 17484496169214424368
14844126 61 16388155064875120098
15309172 13 18261119624709641840
15375358 24 17458054976145263373
15375462 189 18131060567655953943
16752209 62 17060048217163675853
16945 1 18259989279427187116
1813 80 18268164067265732524
18219364 16 18040718090668151226
19422 9 17989488506867059662
19433438 48 18271519789143019906
200 152 18339913892252326717
20645477 70 18040426702817224798
21427221 339 17843135700875205595
22112679 90 17989211442753553761
23419403 2 16115442744823125841
23493267 7 16271656593731225251
23526113 38 17241318062803854850
23557571 272 15554181349109693633
23559900 14 15719665477563289954
23598288 3 17918274230137645223
23598291 2 18200604578937940093
23598294 1 17132115732264853547
23728640 28 15884874473658482539
238 59 17968637406859946007
633830 44 18269855210417304428
7097593 13 17843688755081792027
77492 1 18130792277928187717
81228 2 17249191524295744260
9981440 41 16550567801795920656

> <PUBCHEM_SHAPE_MULTIPOLES>
385.22
7.51
2.37
1.85
1.07
1.28
-0.46
0.35
0.12
2.23
-0.24
-2.48
-0.45
-1.7

> <PUBCHEM_SHAPE_SELFOVERLAP>
813.341

> <PUBCHEM_SHAPE_VOLUME>
213.1

> <PUBCHEM_COORDINATE_TYPE>
2
5
10

$$$$
