44257022
  -OEChem-11202013183D

 80 84  0     1  0  0  0  0  0999 V2000
   -1.9765    1.8324   -0.0563 O   0  0  0  0  0  0  0  0  0  0  0  0
   -2.4040    0.2607   -1.7463 O   0  0  0  0  0  0  0  0  0  0  0  0
   -3.2572    5.2274    0.5191 O   0  0  0  0  0  0  0  0  0  0  0  0
   -5.3447    4.0163   -1.0693 O   0  0  0  0  0  0  0  0  0  0  0  0
   -4.7031    1.3397   -0.6167 O   0  0  0  0  0  0  0  0  0  0  0  0
    0.0537    3.1418    1.6298 O   0  0  0  0  0  0  0  0  0  0  0  0
    0.3456   -2.0016   -0.7423 O   0  3  0  0  0  0  0  0  0  0  0  0
   -0.1374    0.8496    1.8479 O   0  0  0  0  0  0  0  0  0  0  0  0
    2.1516    1.2183   -3.9004 O   0  0  0  0  0  0  0  0  0  0  0  0
    4.9333   -2.2016   -2.1121 O   0  0  0  0  0  0  0  0  0  0  0  0
   -2.6922   -2.4937    3.5665 O   0  0  0  0  0  0  0  0  0  0  0  0
   -5.2444   -3.4025   -0.3827 O   0  0  0  0  0  0  0  0  0  0  0  0
   -5.0006   -3.4542    2.3758 O   0  0  0  0  0  0  0  0  0  0  0  0
    8.3110    0.4548    1.2569 O   0  0  0  0  0  0  0  0  0  0  0  0
   -3.3499    3.8271    0.2701 C   0  0  1  0  0  0  0  0  0  0  0  0
   -3.9833    3.5968   -1.1046 C   0  0  1  0  0  0  0  0  0  0  0  0
   -1.9443    3.2123    0.3226 C   0  0  1  0  0  0  0  0  0  0  0  0
   -3.8980    2.1236   -1.5029 C   0  0  1  0  0  0  0  0  0  0  0  0
   -2.4529    1.6390   -1.3901 C   0  0  1  0  0  0  0  0  0  0  0  0
   -1.3512    3.2891    1.7259 C   0  0  0  0  0  0  0  0  0  0  0  0
   -1.1237   -0.2379   -1.6745 C   0  0  0  0  0  0  0  0  0  0  0  0
   -0.8161   -1.4122   -0.7978 C   0  0  0  0  0  0  0  0  0  0  0  0
   -0.1105    0.2478   -2.4035 C   0  0  0  0  0  0  0  0  0  0  0  0
    1.2134   -0.3606   -2.3384 C   0  0  0  0  0  0  0  0  0  0  0  0
    0.5295    1.8623    1.7064 C   0  0  0  0  0  0  0  0  0  0  0  0
   -1.9171   -1.9487    0.0360 C   0  0  0  0  0  0  0  0  0  0  0  0
    1.3977   -1.4775   -1.5166 C   0  0  0  0  0  0  0  0  0  0  0  0
    2.2871    0.1339   -3.0847 C   0  0  0  0  0  0  0  0  0  0  0  0
    2.6461   -2.0958   -1.4410 C   0  0  0  0  0  0  0  0  0  0  0  0
   -3.0788   -2.4304   -0.5670 C   0  0  0  0  0  0  0  0  0  0  0  0
   -1.7911   -1.9723    1.4250 C   0  0  0  0  0  0  0  0  0  0  0  0
    2.0044    1.9096    1.5873 C   0  0  0  0  0  0  0  0  0  0  0  0
    3.5357   -0.4859   -3.0061 C   0  0  0  0  0  0  0  0  0  0  0  0
    3.7147   -1.5996   -2.1858 C   0  0  0  0  0  0  0  0  0  0  0  0
   -2.8268   -2.4777    2.2109 C   0  0  0  0  0  0  0  0  0  0  0  0
   -4.1146   -2.9359    0.2188 C   0  0  0  0  0  0  0  0  0  0  0  0
   -3.9886   -2.9594    1.6077 C   0  0  0  0  0  0  0  0  0  0  0  0
    2.7081    0.7695    1.6335 C   0  0  0  0  0  0  0  0  0  0  0  0
    4.1762    0.6875    1.5362 C   0  0  0  0  0  0  0  0  0  0  0  0
    5.0461   -3.3355   -1.2532 C   0  0  0  0  0  0  0  0  0  0  0  0
   -1.4730   -1.9828    4.1024 C   0  0  0  0  0  0  0  0  0  0  0  0
   -5.2921   -3.3423   -1.8070 C   0  0  0  0  0  0  0  0  0  0  0  0
    4.8983    1.7436    0.9803 C   0  0  0  0  0  0  0  0  0  0  0  0
    4.8436   -0.4467    1.9988 C   0  0  0  0  0  0  0  0  0  0  0  0
    6.2877    1.6654    0.8867 C   0  0  0  0  0  0  0  0  0  0  0  0
    6.2331   -0.5249    1.9052 C   0  0  0  0  0  0  0  0  0  0  0  0
    6.9551    0.5312    1.3492 C   0  0  0  0  0  0  0  0  0  0  0  0
   -3.9909    3.4036    1.0522 H   0  0  0  0  0  0  0  0  0  0  0  0
   -3.4770    4.2186   -1.8534 H   0  0  0  0  0  0  0  0  0  0  0  0
   -1.2731    3.7436   -0.3664 H   0  0  0  0  0  0  0  0  0  0  0  0
   -4.2989    1.9616   -2.5088 H   0  0  0  0  0  0  0  0  0  0  0  0
   -1.8422    2.2295   -2.0861 H   0  0  0  0  0  0  0  0  0  0  0  0
   -1.7911    2.5445    2.4007 H   0  0  0  0  0  0  0  0  0  0  0  0
   -1.5247    4.2737    2.1716 H   0  0  0  0  0  0  0  0  0  0  0  0
   -2.6868    5.6177   -0.1650 H   0  0  0  0  0  0  0  0  0  0  0  0
   -5.7248    3.8487   -1.9484 H   0  0  0  0  0  0  0  0  0  0  0  0
   -4.2551    1.2942    0.2448 H   0  0  0  0  0  0  0  0  0  0  0  0
   -0.2599    1.0723   -3.0915 H   0  0  0  0  0  0  0  0  0  0  0  0
    2.7155   -2.9543   -0.7820 H   0  0  0  0  0  0  0  0  0  0  0  0
   -3.1170   -2.4035   -1.6509 H   0  0  0  0  0  0  0  0  0  0  0  0
   -0.8579   -1.6039    1.8348 H   0  0  0  0  0  0  0  0  0  0  0  0
    2.4587    2.8881    1.4855 H   0  0  0  0  0  0  0  0  0  0  0  0
    4.3763   -0.1069   -3.5826 H   0  0  0  0  0  0  0  0  0  0  0  0
    2.1983   -0.1829    1.7616 H   0  0  0  0  0  0  0  0  0  0  0  0
    3.0041    1.4056   -4.3291 H   0  0  0  0  0  0  0  0  0  0  0  0
   -5.7208   -3.7404    1.7873 H   0  0  0  0  0  0  0  0  0  0  0  0
    6.0816   -3.6859   -1.3151 H   0  0  0  0  0  0  0  0  0  0  0  0
    4.4084   -4.1599   -1.5896 H   0  0  0  0  0  0  0  0  0  0  0  0
    4.8615   -3.0683   -0.2072 H   0  0  0  0  0  0  0  0  0  0  0  0
   -1.5379   -2.0726    5.1918 H   0  0  0  0  0  0  0  0  0  0  0  0
   -1.3490   -0.9178    3.8792 H   0  0  0  0  0  0  0  0  0  0  0  0
   -0.6107   -2.5797    3.7862 H   0  0  0  0  0  0  0  0  0  0  0  0
   -6.2612   -3.7495   -2.1139 H   0  0  0  0  0  0  0  0  0  0  0  0
   -4.5235   -3.9749   -2.2639 H   0  0  0  0  0  0  0  0  0  0  0  0
   -5.2535   -2.3091   -2.1694 H   0  0  0  0  0  0  0  0  0  0  0  0
    4.4200    2.6362    0.5882 H   0  0  0  0  0  0  0  0  0  0  0  0
    4.2968   -1.2795    2.4342 H   0  0  0  0  0  0  0  0  0  0  0  0
    6.8450    2.4888    0.4482 H   0  0  0  0  0  0  0  0  0  0  0  0
    6.7411   -1.4144    2.2679 H   0  0  0  0  0  0  0  0  0  0  0  0
    8.6040   -0.3973    1.6231 H   0  0  0  0  0  0  0  0  0  0  0  0
  1 17  1  0  0  0  0
  1 19  1  0  0  0  0
  2 19  1  0  0  0  0
  2 21  1  0  0  0  0
  3 15  1  0  0  0  0
  3 55  1  0  0  0  0
  4 16  1  0  0  0  0
  4 56  1  0  0  0  0
  5 18  1  0  0  0  0
  5 57  1  0  0  0  0
  6 20  1  0  0  0  0
  6 25  1  0  0  0  0
  7 22  2  0  0  0  0
  7 27  1  0  0  0  0
  8 25  2  0  0  0  0
  9 28  1  0  0  0  0
  9 65  1  0  0  0  0
 10 34  1  0  0  0  0
 10 40  1  0  0  0  0
 11 35  1  0  0  0  0
 11 41  1  0  0  0  0
 12 36  1  0  0  0  0
 12 42  1  0  0  0  0
 13 37  1  0  0  0  0
 13 66  1  0  0  0  0
 14 47  1  0  0  0  0
 14 80  1  0  0  0  0
 15 16  1  0  0  0  0
 15 17  1  0  0  0  0
 15 48  1  0  0  0  0
 16 18  1  0  0  0  0
 16 49  1  0  0  0  0
 17 20  1  0  0  0  0
 17 50  1  0  0  0  0
 18 19  1  0  0  0  0
 18 51  1  0  0  0  0
 19 52  1  0  0  0  0
 20 53  1  0  0  0  0
 20 54  1  0  0  0  0
 21 22  1  0  0  0  0
 21 23  2  0  0  0  0
 22 26  1  0  0  0  0
 23 24  1  0  0  0  0
 23 58  1  0  0  0  0
 24 27  1  0  0  0  0
 24 28  2  0  0  0  0
 25 32  1  0  0  0  0
 26 30  2  0  0  0  0
 26 31  1  0  0  0  0
 27 29  2  0  0  0  0
 28 33  1  0  0  0  0
 29 34  1  0  0  0  0
 29 59  1  0  0  0  0
 30 36  1  0  0  0  0
 30 60  1  0  0  0  0
 31 35  2  0  0  0  0
 31 61  1  0  0  0  0
 32 38  2  0  0  0  0
 32 62  1  0  0  0  0
 33 34  2  0  0  0  0
 33 63  1  0  0  0  0
 35 37  1  0  0  0  0
 36 37  2  0  0  0  0
 38 39  1  0  0  0  0
 38 64  1  0  0  0  0
 39 43  2  0  0  0  0
 39 44  1  0  0  0  0
 40 67  1  0  0  0  0
 40 68  1  0  0  0  0
 40 69  1  0  0  0  0
 41 70  1  0  0  0  0
 41 71  1  0  0  0  0
 41 72  1  0  0  0  0
 42 73  1  0  0  0  0
 42 74  1  0  0  0  0
 42 75  1  0  0  0  0
 43 45  1  0  0  0  0
 43 76  1  0  0  0  0
 44 46  2  0  0  0  0
 44 77  1  0  0  0  0
 45 47  2  0  0  0  0
 45 78  1  0  0  0  0
 46 47  1  0  0  0  0
 46 79  1  0  0  0  0
M  CHG  1   7   1
M  END
> <PUBCHEM_COMPOUND_CID>
44257022

> <PUBCHEM_CONFORMER_RMSD>
1.2

> <PUBCHEM_CONFORMER_DIVERSEORDER>
1
60
110
61
79
113
54
45
6
63
128
10
50
96
62
16
103
90
125
107
106
91
31
3
26
4
76
44
75
43
37
27
115
84
92
20
70
120
15
74
58
7
122
80
130
28
105
67
101
33
124
81
78
59
71
73
93
19
66
17
94
29
119
8
47
98
30
22
2
38
72
102
121
51
25
55
95
64
34
21
32
126
100
69
35
104
109
82
52
40
117
97
56
42
88
41
57
114
49
18
14
68
86
87
23
48
89
83
11
99
9
24
46
12
112
118
39
123
53
36
5
77
65
108
116
111
129
85
127
13

> <PUBCHEM_MMFF94_PARTIAL_CHARGES>
64
1 -0.56
10 -0.36
11 -0.36
12 -0.36
13 -0.53
14 -0.53
15 0.28
16 0.28
17 0.28
18 0.28
19 0.56
2 -0.36
20 0.28
21 0.09
22 0.85
23 -0.18
24 0.03
25 0.71
26 0.09
27 0.92
28 0.08
29 -0.15
3 -0.68
30 -0.15
31 -0.15
32 -0.14
33 -0.15
34 0.08
35 0.08
36 0.08
37 0.08
38 -0.18
39 0.03
4 -0.68
40 0.28
41 0.28
42 0.28
43 -0.15
44 -0.15
45 -0.15
46 -0.15
47 0.08
5 -0.68
55 0.4
56 0.4
57 0.4
58 0.15
59 0.15
6 -0.43
60 0.15
61 0.15
62 0.15
63 0.15
64 0.15
65 0.45
66 0.45
7 -0.87
76 0.15
77 0.15
78 0.15
79 0.15
8 -0.57
80 0.45
9 -0.53

> <PUBCHEM_EFFECTIVE_ROTOR_COUNT>
12.2

> <PUBCHEM_PHARMACOPHORE_FEATURES>
20
1 1 acceptor
1 10 acceptor
1 11 acceptor
1 12 acceptor
1 13 donor
1 14 donor
1 2 acceptor
1 3 acceptor
1 3 donor
1 4 acceptor
1 4 donor
1 5 acceptor
1 5 donor
1 8 acceptor
1 9 donor
6 1 15 16 17 18 19 rings
6 24 27 28 29 33 34 rings
6 26 30 31 35 36 37 rings
6 39 43 44 45 46 47 rings
6 7 21 22 23 24 27 rings

> <PUBCHEM_HEAVY_ATOM_COUNT>
47

> <PUBCHEM_ATOM_DEF_STEREO_COUNT>
3

> <PUBCHEM_ATOM_UDEF_STEREO_COUNT>
2

> <PUBCHEM_BOND_DEF_STEREO_COUNT>
1

> <PUBCHEM_BOND_UDEF_STEREO_COUNT>
0

> <PUBCHEM_ISOTOPIC_ATOM_COUNT>
0

> <PUBCHEM_COMPONENT_COUNT>
1

> <PUBCHEM_CACTVS_TAUTO_COUNT>
16

> <PUBCHEM_CONFORMER_ID>
02A34EFE00000001

> <PUBCHEM_MMFF94_ENERGY>
169.6342

> <PUBCHEM_FEATURE_SELFOVERLAP>
101.604

> <PUBCHEM_SHAPE_FINGERPRINT>
11578080 2 18272655631809527527
12128747 34 18339631257629450466
12156800 1 18261688020539273721
12422481 6 17274555273616426906
12788726 201 17896616148693611351
12977781 61 18272375218138157930
14705955 166 18334852840071496554
15444296 8 18269544104023102059
15968369 153 16343152298815300336
16090146 7 16805594889519961403
20764821 26 18128839527997012089
21033648 29 17900254208968211556
22223350 30 18266188227348131062
244849 19 18271813376244334870
27425 322 18192988210422372144
469060 322 17987800855302600074
513202 73 18341045332630220728
5265222 85 17773013462984938896

> <PUBCHEM_SHAPE_MULTIPOLES>
885.07
14.01
5.63
3.86
18.38
3.39
0.28
-2.07
3.49
-9.98
0.86
1.05
-1.84
4.67

> <PUBCHEM_SHAPE_SELFOVERLAP>
1925.623

> <PUBCHEM_SHAPE_VOLUME>
477.9

> <PUBCHEM_COORDINATE_TYPE>
2
5
10

$$$$
