6442694
  -OEChem-09072001553D

 79 82  0     1  0  0  0  0  0999 V2000
   -2.0836    3.1239   -0.4146 O   0  0  0  0  0  0  0  0  0  0  0  0
   -8.3401   -0.0828    0.4958 O   0  0  0  0  0  0  0  0  0  0  0  0
    0.3524   -0.6154   -0.2635 C   0  0  1  0  0  0  0  0  0  0  0  0
   -0.3840    0.6377    0.2557 C   0  0  2  0  0  0  0  0  0  0  0  0
   -1.8420    0.7328   -0.2279 C   0  0  1  0  0  0  0  0  0  0  0  0
   -2.6121   -0.5455    0.2206 C   0  0  1  0  0  0  0  0  0  0  0  0
    1.7485   -0.3630    0.3569 C   0  0  2  0  0  0  0  0  0  0  0  0
   -0.3756   -1.8468    0.2908 C   0  0  0  0  0  0  0  0  0  0  0  0
   -4.1133   -0.5257   -0.2749 C   0  0  2  0  0  0  0  0  0  0  0  0
    0.5862    1.7746   -0.0561 C   0  0  0  0  0  0  0  0  0  0  0  0
   -1.8554   -1.8575   -0.1233 C   0  0  0  0  0  0  0  0  0  0  0  0
    1.9798    1.1488    0.1357 C   0  0  0  0  0  0  0  0  0  0  0  0
   -2.5326    1.9923    0.3323 C   0  0  2  0  0  0  0  0  0  0  0  0
    0.4344   -0.7016   -1.8080 C   0  0  0  0  0  0  0  0  0  0  0  0
   -4.7496    0.8459   -0.0199 C   0  0  0  0  0  0  0  0  0  0  0  0
    2.8918   -1.2200   -0.1674 C   0  0  2  0  0  0  0  0  0  0  0  0
   -4.9024   -1.6125    0.5159 C   0  0  0  0  0  0  0  0  0  0  0  0
   -4.0279    1.9437    0.2641 C   0  0  0  0  0  0  0  0  0  0  0  0
   -4.2118   -0.8224   -1.7903 C   0  0  0  0  0  0  0  0  0  0  0  0
   -6.2562    0.9359   -0.0996 C   0  0  0  0  0  0  0  0  0  0  0  0
   -6.4200   -1.5308    0.3604 C   0  0  0  0  0  0  0  0  0  0  0  0
   -6.9373   -0.1454    0.7322 C   0  0  2  0  0  0  0  0  0  0  0  0
    2.6116   -2.7051    0.0734 C   0  0  0  0  0  0  0  0  0  0  0  0
    4.1902   -0.8257    0.4937 C   0  0  0  0  0  0  0  0  0  0  0  0
    5.2573   -0.3604   -0.1743 C   0  0  0  0  0  0  0  0  0  0  0  0
    6.5620    0.0295    0.4899 C   0  0  2  0  0  0  0  0  0  0  0  0
    6.9093    1.5357    0.2991 C   0  0  0  0  0  0  0  0  0  0  0  0
    7.6648   -0.9331   -0.0040 C   0  0  0  0  0  0  0  0  0  0  0  0
    5.8765    2.4987    0.8935 C   0  0  0  0  0  0  0  0  0  0  0  0
    7.1416    1.8795   -1.1789 C   0  0  0  0  0  0  0  0  0  0  0  0
    7.4376   -2.3853    0.3926 C   0  0  0  0  0  0  0  0  0  0  0  0
   -0.4294    0.5751    1.3563 H   0  0  0  0  0  0  0  0  0  0  0  0
   -1.8384    0.7986   -1.3220 H   0  0  0  0  0  0  0  0  0  0  0  0
   -2.6397   -0.5067    1.3220 H   0  0  0  0  0  0  0  0  0  0  0  0
    1.6726   -0.5172    1.4453 H   0  0  0  0  0  0  0  0  0  0  0  0
   -0.3165   -1.8635    1.3866 H   0  0  0  0  0  0  0  0  0  0  0  0
    0.0533   -2.7856   -0.0607 H   0  0  0  0  0  0  0  0  0  0  0  0
    0.4441    2.6304    0.6117 H   0  0  0  0  0  0  0  0  0  0  0  0
    0.4695    2.1313   -1.0855 H   0  0  0  0  0  0  0  0  0  0  0  0
   -1.9123   -2.0638   -1.1961 H   0  0  0  0  0  0  0  0  0  0  0  0
   -2.3376   -2.7044    0.3775 H   0  0  0  0  0  0  0  0  0  0  0  0
    2.5948    1.3536   -0.7482 H   0  0  0  0  0  0  0  0  0  0  0  0
    2.4866    1.5925    1.0000 H   0  0  0  0  0  0  0  0  0  0  0  0
   -2.2456    2.1588    1.3769 H   0  0  0  0  0  0  0  0  0  0  0  0
    1.0252    0.1120   -2.2407 H   0  0  0  0  0  0  0  0  0  0  0  0
    0.8923   -1.6419   -2.1312 H   0  0  0  0  0  0  0  0  0  0  0  0
   -0.5489   -0.6602   -2.2842 H   0  0  0  0  0  0  0  0  0  0  0  0
    3.0057   -1.0758   -1.2492 H   0  0  0  0  0  0  0  0  0  0  0  0
   -4.6699   -1.5283    1.5863 H   0  0  0  0  0  0  0  0  0  0  0  0
   -4.5829   -2.6156    0.2091 H   0  0  0  0  0  0  0  0  0  0  0  0
   -4.5432    2.8820    0.4587 H   0  0  0  0  0  0  0  0  0  0  0  0
   -3.5881   -0.1421   -2.3793 H   0  0  0  0  0  0  0  0  0  0  0  0
   -3.9045   -1.8468   -2.0234 H   0  0  0  0  0  0  0  0  0  0  0  0
   -5.2346   -0.7189   -2.1682 H   0  0  0  0  0  0  0  0  0  0  0  0
   -6.6213    1.9169    0.2313 H   0  0  0  0  0  0  0  0  0  0  0  0
   -6.5702    0.8590   -1.1485 H   0  0  0  0  0  0  0  0  0  0  0  0
   -6.7162   -1.7871   -0.6642 H   0  0  0  0  0  0  0  0  0  0  0  0
   -6.9002   -2.2835    0.9977 H   0  0  0  0  0  0  0  0  0  0  0  0
   -6.7732    0.0407    1.8001 H   0  0  0  0  0  0  0  0  0  0  0  0
    1.9572   -3.1208   -0.6958 H   0  0  0  0  0  0  0  0  0  0  0  0
    3.5393   -3.2877    0.0075 H   0  0  0  0  0  0  0  0  0  0  0  0
    2.1876   -2.8941    1.0652 H   0  0  0  0  0  0  0  0  0  0  0  0
    4.2443   -0.9296    1.5751 H   0  0  0  0  0  0  0  0  0  0  0  0
   -2.3536    3.0020   -1.3411 H   0  0  0  0  0  0  0  0  0  0  0  0
    5.2010   -0.2704   -1.2562 H   0  0  0  0  0  0  0  0  0  0  0  0
   -8.4957   -0.2636   -0.4470 H   0  0  0  0  0  0  0  0  0  0  0  0
    6.4653   -0.1261    1.5742 H   0  0  0  0  0  0  0  0  0  0  0  0
    7.8551    1.7179    0.8273 H   0  0  0  0  0  0  0  0  0  0  0  0
    7.7632   -0.8891   -1.0952 H   0  0  0  0  0  0  0  0  0  0  0  0
    8.6271   -0.6112    0.4130 H   0  0  0  0  0  0  0  0  0  0  0  0
    6.2358    3.5320    0.8394 H   0  0  0  0  0  0  0  0  0  0  0  0
    5.6908    2.2641    1.9468 H   0  0  0  0  0  0  0  0  0  0  0  0
    4.9228    2.4493    0.3588 H   0  0  0  0  0  0  0  0  0  0  0  0
    7.9459    1.2807   -1.6153 H   0  0  0  0  0  0  0  0  0  0  0  0
    7.4412    2.9293   -1.2776 H   0  0  0  0  0  0  0  0  0  0  0  0
    6.2389    1.7438   -1.7822 H   0  0  0  0  0  0  0  0  0  0  0  0
    7.3121   -2.4818    1.4757 H   0  0  0  0  0  0  0  0  0  0  0  0
    6.5557   -2.8080   -0.0979 H   0  0  0  0  0  0  0  0  0  0  0  0
    8.3000   -2.9924    0.0983 H   0  0  0  0  0  0  0  0  0  0  0  0
  1 13  1  0  0  0  0
  1 64  1  0  0  0  0
  2 22  1  0  0  0  0
  2 66  1  0  0  0  0
  3  4  1  0  0  0  0
  3  7  1  0  0  0  0
  3  8  1  0  0  0  0
  3 14  1  0  0  0  0
  4  5  1  0  0  0  0
  4 10  1  0  0  0  0
  4 32  1  0  0  0  0
  5  6  1  0  0  0  0
  5 13  1  0  0  0  0
  5 33  1  0  0  0  0
  6  9  1  0  0  0  0
  6 11  1  0  0  0  0
  6 34  1  0  0  0  0
  7 12  1  0  0  0  0
  7 16  1  0  0  0  0
  7 35  1  0  0  0  0
  8 11  1  0  0  0  0
  8 36  1  0  0  0  0
  8 37  1  0  0  0  0
  9 15  1  0  0  0  0
  9 17  1  0  0  0  0
  9 19  1  0  0  0  0
 10 12  1  0  0  0  0
 10 38  1  0  0  0  0
 10 39  1  0  0  0  0
 11 40  1  0  0  0  0
 11 41  1  0  0  0  0
 12 42  1  0  0  0  0
 12 43  1  0  0  0  0
 13 18  1  0  0  0  0
 13 44  1  0  0  0  0
 14 45  1  0  0  0  0
 14 46  1  0  0  0  0
 14 47  1  0  0  0  0
 15 18  2  0  0  0  0
 15 20  1  0  0  0  0
 16 23  1  0  0  0  0
 16 24  1  0  0  0  0
 16 48  1  0  0  0  0
 17 21  1  0  0  0  0
 17 49  1  0  0  0  0
 17 50  1  0  0  0  0
 18 51  1  0  0  0  0
 19 52  1  0  0  0  0
 19 53  1  0  0  0  0
 19 54  1  0  0  0  0
 20 22  1  0  0  0  0
 20 55  1  0  0  0  0
 20 56  1  0  0  0  0
 21 22  1  0  0  0  0
 21 57  1  0  0  0  0
 21 58  1  0  0  0  0
 22 59  1  0  0  0  0
 23 60  1  0  0  0  0
 23 61  1  0  0  0  0
 23 62  1  0  0  0  0
 24 25  2  0  0  0  0
 24 63  1  0  0  0  0
 25 26  1  0  0  0  0
 25 65  1  0  0  0  0
 26 27  1  0  0  0  0
 26 28  1  0  0  0  0
 26 67  1  0  0  0  0
 27 29  1  0  0  0  0
 27 30  1  0  0  0  0
 27 68  1  0  0  0  0
 28 31  1  0  0  0  0
 28 69  1  0  0  0  0
 28 70  1  0  0  0  0
 29 71  1  0  0  0  0
 29 72  1  0  0  0  0
 29 73  1  0  0  0  0
 30 74  1  0  0  0  0
 30 75  1  0  0  0  0
 30 76  1  0  0  0  0
 31 77  1  0  0  0  0
 31 78  1  0  0  0  0
 31 79  1  0  0  0  0
M  END
> <PUBCHEM_COMPOUND_CID>
6442694

> <PUBCHEM_CONFORMER_RMSD>
0.8

> <PUBCHEM_CONFORMER_DIVERSEORDER>
1
16
22
18
24
25
26
27
28
19
20
14
13
23
5
17
21
4
10
2
6
7
11
15
8
3
9
12

> <PUBCHEM_MMFF94_PARTIAL_CHARGES>
17
1 -0.68
13 0.42
15 -0.28
16 0.14
18 -0.29
2 -0.68
20 0.14
22 0.28
24 -0.29
25 -0.29
26 0.14
51 0.15
63 0.15
64 0.4
65 0.15
66 0.4
9 0.14

> <PUBCHEM_EFFECTIVE_ROTOR_COUNT>
7

> <PUBCHEM_PHARMACOPHORE_FEATURES>
12
1 1 acceptor
1 1 donor
1 2 acceptor
1 2 donor
1 23 hydrophobe
1 31 hydrophobe
3 27 29 30 hydrophobe
4 25 26 27 28 hydrophobe
5 3 4 7 10 12 rings
6 3 4 5 6 8 11 rings
6 5 6 9 13 15 18 rings
6 9 15 17 20 21 22 rings

> <PUBCHEM_HEAVY_ATOM_COUNT>
31

> <PUBCHEM_ATOM_DEF_STEREO_COUNT>
10

> <PUBCHEM_ATOM_UDEF_STEREO_COUNT>
0

> <PUBCHEM_BOND_DEF_STEREO_COUNT>
1

> <PUBCHEM_BOND_UDEF_STEREO_COUNT>
0

> <PUBCHEM_ISOTOPIC_ATOM_COUNT>
0

> <PUBCHEM_COMPONENT_COUNT>
1

> <PUBCHEM_CACTVS_TAUTO_COUNT>
1

> <PUBCHEM_CONFORMER_ID>
00624EC600000001

> <PUBCHEM_MMFF94_ENERGY>
88.624

> <PUBCHEM_FEATURE_SELFOVERLAP>
61.266

> <PUBCHEM_SHAPE_FINGERPRINT>
10 15 18335140911996732154
10050765 1 18121499051068331994
10299344 5 18412826884930548802
10906281 52 18411149043087451126
11135926 11 18337942424612095606
11524674 6 16415474965080901279
11578080 2 17098318827622518325
12166972 35 17530688731767466365
12236239 1 18187083953761570534
13811026 1 18410571768953607671
14251764 18 18411982489838263175
14394314 77 18338520729849034057
1454969 45 18412543231956909428
14790565 3 18411981373727164280
14849402 71 18338519762821918224
14933364 13 18413389843542405128
15131766 46 14762062459201010800
15183329 4 15841556284330502666
15461852 350 13479143392914036459
15840311 113 18187368744479537860
15849732 13 18186239532530326742
16087824 20 18337110048389243245
18608769 82 18410855490673416299
19611394 137 18115600377581193091
21236236 1 18413106130434169416
21267235 1 18410015420370312091
21315763 28 18409729539501045218
21792934 111 18341603803339005464
23559900 14 18340479079536134345
335352 9 18411134750195614269
335507 130 18201717328425510782
3383291 50 18187366562119836859
34797466 226 17846787312741742668
350125 39 18412544327237289073
4073 2 18113623430021010658
4093350 32 17203616968992381916
4197921 191 18335706048917156120
4258327 124 17023764436689794148
4325135 7 18412545405516381188
4340502 62 17168141239550281538
4625314 4 18409166571618479964
5104073 3 18269550533584247003
5265222 85 18059292175103804230
550186 72 18408601444365670692

> <PUBCHEM_SHAPE_MULTIPOLES>
626.23
22.21
2.72
0.99
12.5
0.58
-0.38
0.13
2.74
2.09
0.16
-0.06
-0.04
-0.22

> <PUBCHEM_SHAPE_SELFOVERLAP>
1298.622

> <PUBCHEM_SHAPE_VOLUME>
357.2

> <PUBCHEM_COORDINATE_TYPE>
2
5
10

$$$$
