130475831
  -OEChem-09072001383D

 55 58  0     1  0  0  0  0  0999 V2000
    0.1321    1.3995    0.8729 O   0  0  0  0  0  0  0  0  0  0  0  0
    0.8188   -0.0019   -0.8616 O   0  0  0  0  0  0  0  0  0  0  0  0
    0.4376    4.7243   -1.5186 O   0  0  0  0  0  0  0  0  0  0  0  0
    0.3141    5.0257    1.3536 O   0  0  0  0  0  0  0  0  0  0  0  0
    1.8567    2.2437   -2.2356 O   0  0  0  0  0  0  0  0  0  0  0  0
   -0.3064    1.4844    3.5851 O   0  0  0  0  0  0  0  0  0  0  0  0
   -0.7576   -3.6516    0.7623 O   0  0  0  0  0  0  0  0  0  0  0  0
   -3.2521    1.7625   -0.5053 O   0  0  0  0  0  0  0  0  0  0  0  0
   -2.1256    0.6559   -2.1402 O   0  0  0  0  0  0  0  0  0  0  0  0
    1.9775   -3.0579    0.4986 N   0  0  0  0  0  0  0  0  0  0  0  0
   -1.3555   -1.5694   -0.1396 N   0  0  0  0  0  0  0  0  0  0  0  0
    0.9107    3.7411   -0.5967 C   0  0  1  0  0  0  0  0  0  0  0  0
    0.0403    3.8121    0.6582 C   0  0  1  0  0  0  0  0  0  0  0  0
    0.8361    2.3583   -1.2443 C   0  0  2  0  0  0  0  0  0  0  0  0
    0.3218    2.6250    1.5823 C   0  0  1  0  0  0  0  0  0  0  0  0
    1.0437    1.2493   -0.2129 C   0  0  1  0  0  0  0  0  0  0  0  0
   -0.6168    2.6105    2.7848 C   0  0  0  0  0  0  0  0  0  0  0  0
    1.5245   -1.0733   -0.3866 C   0  0  0  0  0  0  0  0  0  0  0  0
    2.9385   -1.2230   -0.3302 C   0  0  0  0  0  0  0  0  0  0  0  0
    0.9615   -2.2175    0.1300 C   0  0  0  0  0  0  0  0  0  0  0  0
    3.1959   -2.4764    0.2292 C   0  0  0  0  0  0  0  0  0  0  0  0
    4.0274   -0.4100   -0.7026 C   0  0  0  0  0  0  0  0  0  0  0  0
   -0.4223   -2.5410    0.2867 C   0  0  0  0  0  0  0  0  0  0  0  0
    4.4930   -2.9592    0.4358 C   0  0  0  0  0  0  0  0  0  0  0  0
    5.3305   -0.8799   -0.5018 C   0  0  0  0  0  0  0  0  0  0  0  0
    5.5572   -2.1351    0.0589 C   0  0  0  0  0  0  0  0  0  0  0  0
   -2.7711   -1.6176   -0.1304 C   0  0  0  0  0  0  0  0  0  0  0  0
   -3.5292   -0.5592   -0.6308 C   0  0  0  0  0  0  0  0  0  0  0  0
   -3.4059   -2.7470    0.3864 C   0  0  0  0  0  0  0  0  0  0  0  0
   -4.9222   -0.6299   -0.6144 C   0  0  0  0  0  0  0  0  0  0  0  0
   -4.7990   -2.8180    0.4028 C   0  0  0  0  0  0  0  0  0  0  0  0
   -5.5570   -1.7595   -0.0977 C   0  0  0  0  0  0  0  0  0  0  0  0
   -2.8975    0.6350   -1.1782 C   0  0  0  0  0  0  0  0  0  0  0  0
    1.9480    4.0120   -0.3675 H   0  0  0  0  0  0  0  0  0  0  0  0
   -1.0182    3.8314    0.3721 H   0  0  0  0  0  0  0  0  0  0  0  0
   -0.1193    2.2334   -1.7628 H   0  0  0  0  0  0  0  0  0  0  0  0
    1.3534    2.6542    1.9590 H   0  0  0  0  0  0  0  0  0  0  0  0
    2.0656    1.3025    0.1810 H   0  0  0  0  0  0  0  0  0  0  0  0
   -0.5070    3.5142    3.3916 H   0  0  0  0  0  0  0  0  0  0  0  0
   -1.6594    2.5136    2.4637 H   0  0  0  0  0  0  0  0  0  0  0  0
   -0.4793    4.5018   -1.7540 H   0  0  0  0  0  0  0  0  0  0  0  0
    1.2480    5.0127    1.6243 H   0  0  0  0  0  0  0  0  0  0  0  0
    2.7117    2.4263   -1.8104 H   0  0  0  0  0  0  0  0  0  0  0  0
    1.8547   -3.9732    0.9097 H   0  0  0  0  0  0  0  0  0  0  0  0
   -0.9187    1.4915    4.3405 H   0  0  0  0  0  0  0  0  0  0  0  0
    3.8774    0.5662   -1.1513 H   0  0  0  0  0  0  0  0  0  0  0  0
    4.6707   -3.9365    0.8720 H   0  0  0  0  0  0  0  0  0  0  0  0
    6.1742   -0.2582   -0.7895 H   0  0  0  0  0  0  0  0  0  0  0  0
    6.5775   -2.4805    0.2054 H   0  0  0  0  0  0  0  0  0  0  0  0
   -0.9715   -0.7106   -0.5227 H   0  0  0  0  0  0  0  0  0  0  0  0
   -2.8962   -3.6055    0.7978 H   0  0  0  0  0  0  0  0  0  0  0  0
   -5.5270    0.1850   -1.0040 H   0  0  0  0  0  0  0  0  0  0  0  0
   -5.2948   -3.6964    0.8060 H   0  0  0  0  0  0  0  0  0  0  0  0
   -6.6416   -1.8150   -0.0854 H   0  0  0  0  0  0  0  0  0  0  0  0
   -2.8214    2.5607   -0.8792 H   0  0  0  0  0  0  0  0  0  0  0  0
  1 15  1  0  0  0  0
  1 16  1  0  0  0  0
  2 16  1  0  0  0  0
  2 18  1  0  0  0  0
  3 12  1  0  0  0  0
  3 41  1  0  0  0  0
  4 13  1  0  0  0  0
  4 42  1  0  0  0  0
  5 14  1  0  0  0  0
  5 43  1  0  0  0  0
  6 17  1  0  0  0  0
  6 45  1  0  0  0  0
  7 23  2  0  0  0  0
  8 33  1  0  0  0  0
  8 55  1  0  0  0  0
  9 33  2  0  0  0  0
 10 20  1  0  0  0  0
 10 21  1  0  0  0  0
 10 44  1  0  0  0  0
 11 23  1  0  0  0  0
 11 27  1  0  0  0  0
 11 50  1  0  0  0  0
 12 13  1  0  0  0  0
 12 14  1  0  0  0  0
 12 34  1  0  0  0  0
 13 15  1  0  0  0  0
 13 35  1  0  0  0  0
 14 16  1  0  0  0  0
 14 36  1  0  0  0  0
 15 17  1  0  0  0  0
 15 37  1  0  0  0  0
 16 38  1  0  0  0  0
 17 39  1  0  0  0  0
 17 40  1  0  0  0  0
 18 19  1  0  0  0  0
 18 20  2  0  0  0  0
 19 21  1  0  0  0  0
 19 22  2  0  0  0  0
 20 23  1  0  0  0  0
 21 24  2  0  0  0  0
 22 25  1  0  0  0  0
 22 46  1  0  0  0  0
 24 26  1  0  0  0  0
 24 47  1  0  0  0  0
 25 26  2  0  0  0  0
 25 48  1  0  0  0  0
 26 49  1  0  0  0  0
 27 28  1  0  0  0  0
 27 29  2  0  0  0  0
 28 30  2  0  0  0  0
 28 33  1  0  0  0  0
 29 31  1  0  0  0  0
 29 51  1  0  0  0  0
 30 32  1  0  0  0  0
 30 52  1  0  0  0  0
 31 32  2  0  0  0  0
 31 53  1  0  0  0  0
 32 54  1  0  0  0  0
M  END
> <PUBCHEM_COMPOUND_CID>
130475831

> <PUBCHEM_CONFORMER_RMSD>
1

> <PUBCHEM_CONFORMER_DIVERSEORDER>
1
17
85
19
71
26
44
52
58
55
91
30
108
37
21
20
95
39
64
79
5
8
57
41
75
29
92
25
15
34
51
87
66
65
99
78
16
104
43
9
13
69
22
84
70
45
18
24
3
74
42
47
67
88
46
10
61
7
50
96
53
98
89
106
33
36
14
80
102
40
27
63
28
93
54
4
76
48
35
12
23
62
6
60
86
49
100
109
83
82
101
94
31
32
2
103
90
56
73
107
72
38
81
105
68
77
97
110
59
11

> <PUBCHEM_MMFF94_PARTIAL_CHARGES>
47
1 -0.56
10 0.03
11 -0.55
12 0.28
13 0.28
14 0.28
15 0.28
16 0.56
17 0.28
18 0.06
2 -0.34
20 -0.24
21 -0.15
22 -0.15
23 0.71
24 -0.15
25 -0.15
26 -0.15
27 0.12
28 0.09
29 -0.15
3 -0.68
30 -0.15
31 -0.15
32 -0.15
33 0.63
4 -0.68
41 0.4
42 0.4
43 0.4
44 0.27
45 0.4
46 0.15
47 0.15
48 0.15
49 0.15
5 -0.68
50 0.37
51 0.15
52 0.15
53 0.15
54 0.15
55 0.5
6 -0.68
7 -0.57
8 -0.65
9 -0.57

> <PUBCHEM_EFFECTIVE_ROTOR_COUNT>
8.2

> <PUBCHEM_PHARMACOPHORE_FEATURES>
21
1 1 acceptor
1 10 cation
1 10 donor
1 11 donor
1 2 acceptor
1 3 acceptor
1 3 donor
1 4 acceptor
1 4 donor
1 5 acceptor
1 5 donor
1 6 acceptor
1 6 donor
1 7 acceptor
1 8 acceptor
1 9 acceptor
3 8 9 33 anion
5 10 18 19 20 21 rings
6 1 12 13 14 15 16 rings
6 19 21 22 24 25 26 rings
6 27 28 29 30 31 32 rings

> <PUBCHEM_HEAVY_ATOM_COUNT>
33

> <PUBCHEM_ATOM_DEF_STEREO_COUNT>
5

> <PUBCHEM_ATOM_UDEF_STEREO_COUNT>
0

> <PUBCHEM_BOND_DEF_STEREO_COUNT>
0

> <PUBCHEM_BOND_UDEF_STEREO_COUNT>
0

> <PUBCHEM_ISOTOPIC_ATOM_COUNT>
0

> <PUBCHEM_COMPONENT_COUNT>
1

> <PUBCHEM_CACTVS_TAUTO_COUNT>
53

> <PUBCHEM_CONFORMER_ID>
07C6E73700000001

> <PUBCHEM_MMFF94_ENERGY>
100.2088

> <PUBCHEM_FEATURE_SELFOVERLAP>
106.792

> <PUBCHEM_SHAPE_FINGERPRINT>
10165383 225 17473844186790982233
10190206 1 18192462761014550158
1100329 8 18338521820527601141
11115154 58 17770182048639210117
12156800 1 17609180534380332976
12166972 35 18341334487061677963
12403259 226 18334291019900793135
12788726 201 17767667374565324457
13140716 1 18339357457389922139
138480 1 14518046194507860327
14004853 49 17192099369859642249
14068700 675 18343866623347753411
14955137 171 18272938253521836222
15230672 131 17472415934700293940
15927050 60 17763466518814631302
20600515 1 18338803303645477364
20642791 239 18044397134395641998
20775438 99 17405947089029722695
21033648 29 17917128547111109315
21120745 212 18270134409230386956
21133410 127 17534894497394826349
23558518 356 17905617596924300702
23559900 14 18261945358527761927
283562 15 18193273001503815970
350125 39 18261114093171820007
3552219 110 18202294593589039976
3886686 26 17036658104517375466
469060 322 18191030010709778728
5252454 2 17406007617955591547
57527585 103 17607845787483913227
6086070 43 18341879785405861895
6442390 28 17258217900473739309
70251023 43 18197756990505848327
9981440 41 17256521349463015371

> <PUBCHEM_SHAPE_MULTIPOLES>
616.34
9.2
6.18
1.83
0.91
6.41
-1.21
-11.33
1.72
-1.17
-1.4
0.28
2.35
-0.34

> <PUBCHEM_SHAPE_SELFOVERLAP>
1345.884

> <PUBCHEM_SHAPE_VOLUME>
332.4

> <PUBCHEM_COORDINATE_TYPE>
2
5
10

$$$$
