129881881
  -OEChem-09072002053D

 54 53  0     1  0  0  0  0  0999 V2000
   -1.3125   -1.0015   -1.1020 O   0  0  0  0  0  0  0  0  0  0  0  0
   -2.1847    1.7593   -0.8180 O   0  0  0  0  0  0  0  0  0  0  0  0
    5.8601   -3.8334   -0.2637 O   0  0  0  0  0  0  0  0  0  0  0  0
    6.0097   -2.4475    1.5294 O   0  0  0  0  0  0  0  0  0  0  0  0
   -3.6693   -0.7893   -0.7339 C   0  0  0  0  0  0  0  0  0  0  0  0
   -4.8297   -0.5017    0.2168 C   0  0  0  0  0  0  0  0  0  0  0  0
   -2.2728   -0.5743   -0.1249 C   0  0  2  0  0  0  0  0  0  0  0  0
   -6.1826   -0.7663   -0.4488 C   0  0  0  0  0  0  0  0  0  0  0  0
   -7.3734   -0.4812    0.4723 C   0  0  0  0  0  0  0  0  0  0  0  0
   -1.8904    0.8699    0.2562 C   0  0  1  0  0  0  0  0  0  0  0  0
   -8.7291   -0.7681   -0.1761 C   0  0  0  0  0  0  0  0  0  0  0  0
    5.2299    0.9593   -1.0437 C   0  0  0  0  0  0  0  0  0  0  0  0
    5.2951    2.3748   -0.4581 C   0  0  0  0  0  0  0  0  0  0  0  0
   -0.4581    1.0014    0.7138 C   0  0  0  0  0  0  0  0  0  0  0  0
    5.5447   -0.1341   -0.0211 C   0  0  0  0  0  0  0  0  0  0  0  0
    4.2672    2.6774    0.6386 C   0  0  0  0  0  0  0  0  0  0  0  0
   -9.8769   -0.4029    0.7529 C   0  0  0  0  0  0  0  0  0  0  0  0
    0.4891    1.7698    0.1519 C   0  0  0  0  0  0  0  0  0  0  0  0
    5.5590   -1.5159   -0.6741 C   0  0  0  0  0  0  0  0  0  0  0  0
    2.8482    2.5770    0.1519 C   0  0  0  0  0  0  0  0  0  0  0  0
    1.8439    1.8390    0.6505 C   0  0  0  0  0  0  0  0  0  0  0  0
    5.8327   -2.6116    0.3303 C   0  0  0  0  0  0  0  0  0  0  0  0
   -3.7728   -0.1810   -1.6418 H   0  0  0  0  0  0  0  0  0  0  0  0
   -3.7367   -1.8295   -1.0802 H   0  0  0  0  0  0  0  0  0  0  0  0
   -4.7328   -1.1265    1.1126 H   0  0  0  0  0  0  0  0  0  0  0  0
   -4.7902    0.5431    0.5452 H   0  0  0  0  0  0  0  0  0  0  0  0
   -2.1494   -1.2311    0.7442 H   0  0  0  0  0  0  0  0  0  0  0  0
   -6.2712   -0.1475   -1.3503 H   0  0  0  0  0  0  0  0  0  0  0  0
   -6.2261   -1.8124   -0.7763 H   0  0  0  0  0  0  0  0  0  0  0  0
   -7.2756   -1.0842    1.3836 H   0  0  0  0  0  0  0  0  0  0  0  0
   -7.3362    0.5702    0.7838 H   0  0  0  0  0  0  0  0  0  0  0  0
   -2.5304    1.1769    1.0924 H   0  0  0  0  0  0  0  0  0  0  0  0
   -8.7968   -1.8299   -0.4393 H   0  0  0  0  0  0  0  0  0  0  0  0
   -8.8237   -0.1958   -1.1061 H   0  0  0  0  0  0  0  0  0  0  0  0
    4.2451    0.7794   -1.4905 H   0  0  0  0  0  0  0  0  0  0  0  0
    5.9569    0.8986   -1.8634 H   0  0  0  0  0  0  0  0  0  0  0  0
    5.1676    3.0938   -1.2777 H   0  0  0  0  0  0  0  0  0  0  0  0
    6.2997    2.5473   -0.0520 H   0  0  0  0  0  0  0  0  0  0  0  0
   -0.2016    0.4065    1.5895 H   0  0  0  0  0  0  0  0  0  0  0  0
    6.5172    0.0633    0.4467 H   0  0  0  0  0  0  0  0  0  0  0  0
    4.7987   -0.1248    0.7818 H   0  0  0  0  0  0  0  0  0  0  0  0
    4.4267    2.0237    1.5031 H   0  0  0  0  0  0  0  0  0  0  0  0
    4.4302    3.7026    0.9929 H   0  0  0  0  0  0  0  0  0  0  0  0
   -1.4022   -0.4216   -1.8778 H   0  0  0  0  0  0  0  0  0  0  0  0
   -9.8543    0.6620    1.0052 H   0  0  0  0  0  0  0  0  0  0  0  0
   -9.8266   -0.9781    1.6830 H   0  0  0  0  0  0  0  0  0  0  0  0
  -10.8363   -0.6177    0.2720 H   0  0  0  0  0  0  0  0  0  0  0  0
   -2.1106    2.6680   -0.4790 H   0  0  0  0  0  0  0  0  0  0  0  0
    4.5875   -1.7174   -1.1388 H   0  0  0  0  0  0  0  0  0  0  0  0
    6.3386   -1.5551   -1.4429 H   0  0  0  0  0  0  0  0  0  0  0  0
    0.2624    2.3735   -0.7220 H   0  0  0  0  0  0  0  0  0  0  0  0
    2.6268    3.2053   -0.7112 H   0  0  0  0  0  0  0  0  0  0  0  0
    2.0633    1.2187    1.5182 H   0  0  0  0  0  0  0  0  0  0  0  0
    6.0369   -4.5499    0.3826 H   0  0  0  0  0  0  0  0  0  0  0  0
  1  7  1  0  0  0  0
  1 44  1  0  0  0  0
  2 10  1  0  0  0  0
  2 48  1  0  0  0  0
  3 22  1  0  0  0  0
  3 54  1  0  0  0  0
  4 22  2  0  0  0  0
  5  6  1  0  0  0  0
  5  7  1  0  0  0  0
  5 23  1  0  0  0  0
  5 24  1  0  0  0  0
  6  8  1  0  0  0  0
  6 25  1  0  0  0  0
  6 26  1  0  0  0  0
  7 10  1  0  0  0  0
  7 27  1  0  0  0  0
  8  9  1  0  0  0  0
  8 28  1  0  0  0  0
  8 29  1  0  0  0  0
  9 11  1  0  0  0  0
  9 30  1  0  0  0  0
  9 31  1  0  0  0  0
 10 14  1  0  0  0  0
 10 32  1  0  0  0  0
 11 17  1  0  0  0  0
 11 33  1  0  0  0  0
 11 34  1  0  0  0  0
 12 13  1  0  0  0  0
 12 15  1  0  0  0  0
 12 35  1  0  0  0  0
 12 36  1  0  0  0  0
 13 16  1  0  0  0  0
 13 37  1  0  0  0  0
 13 38  1  0  0  0  0
 14 18  2  3  0  0  0
 14 39  1  0  0  0  0
 15 19  1  0  0  0  0
 15 40  1  0  0  0  0
 15 41  1  0  0  0  0
 16 20  1  0  0  0  0
 16 42  1  0  0  0  0
 16 43  1  0  0  0  0
 17 45  1  0  0  0  0
 17 46  1  0  0  0  0
 17 47  1  0  0  0  0
 18 21  1  0  0  0  0
 18 51  1  0  0  0  0
 19 22  1  0  0  0  0
 19 49  1  0  0  0  0
 19 50  1  0  0  0  0
 20 21  2  3  0  0  0
 20 52  1  0  0  0  0
 21 53  1  0  0  0  0
M  END
> <PUBCHEM_COMPOUND_CID>
129881881

> <PUBCHEM_CONFORMER_RMSD>
1.4

> <PUBCHEM_CONFORMER_DIVERSEORDER>
1
60
25
58
84
8
63
102
46
3
72
97
92
105
51
35
28
10
100
15
76
98
81
66
22
77
88
96
19
107
32
55
38
12
13
36
83
9
68
2
27
41
94
86
95
24
74
52
104
61
39
44
56
7
49
67
69
85
59
17
53
43
14
34
62
47
29
87
20
30
54
80
31
16
78
82
11
37
73
21
93
106
50
6
71
91
42
5
45
103
101
33
75
89
4
40
48
79
18
90
26
65
57
64
23
99
70

> <PUBCHEM_MMFF94_PARTIAL_CHARGES>
20
1 -0.68
10 0.42
14 -0.29
16 0.14
18 -0.15
19 0.06
2 -0.68
20 -0.29
21 -0.15
22 0.66
3 -0.65
39 0.15
4 -0.57
44 0.4
48 0.4
51 0.15
52 0.15
53 0.15
54 0.5
7 0.28

> <PUBCHEM_EFFECTIVE_ROTOR_COUNT>
14

> <PUBCHEM_PHARMACOPHORE_FEATURES>
11
1 1 acceptor
1 1 donor
1 17 hydrophobe
1 2 acceptor
1 2 donor
1 3 acceptor
1 4 acceptor
3 12 15 19 hydrophobe
3 13 16 20 hydrophobe
3 3 4 22 anion
5 5 6 8 9 11 hydrophobe

> <PUBCHEM_HEAVY_ATOM_COUNT>
22

> <PUBCHEM_ATOM_DEF_STEREO_COUNT>
0

> <PUBCHEM_ATOM_UDEF_STEREO_COUNT>
2

> <PUBCHEM_BOND_DEF_STEREO_COUNT>
0

> <PUBCHEM_BOND_UDEF_STEREO_COUNT>
2

> <PUBCHEM_ISOTOPIC_ATOM_COUNT>
0

> <PUBCHEM_COMPONENT_COUNT>
1

> <PUBCHEM_CACTVS_TAUTO_COUNT>
1

> <PUBCHEM_CONFORMER_ID>
07BDD71900000001

> <PUBCHEM_MMFF94_ENERGY>
14.9206

> <PUBCHEM_FEATURE_SELFOVERLAP>
55.884

> <PUBCHEM_SHAPE_FINGERPRINT>
10917259 128 16486144877820494617
13533116 47 18410572903421092324
14216079 64 18409729556327297999
14251764 18 17988648523634822505
14347332 77 18412259510918648168
14919807 6 17750221523132542197
15183329 4 17774733051292578497
20812841 46 18412830196582273665
21304303 94 18187365454829865026
21344244 181 18040155119171738450
2835820 82 18337954489196361258
28498 318 18343304786497879861
3014965 18 18411415120147359501
33532 11 18410855490915794795
34797466 226 16805603715535154124
4073 2 18051973911624458336
439807 62 18335140890949130814
59682541 52 18335142007503601328

> <PUBCHEM_SHAPE_MULTIPOLES>
429.27
26.88
3.38
0.98
50.56
1.6
0.05
14.42
2.39
-10.82
0.42
-0.51
0.14
-0.86

> <PUBCHEM_SHAPE_SELFOVERLAP>
805.174

> <PUBCHEM_SHAPE_VOLUME>
265.7

> <PUBCHEM_COORDINATE_TYPE>
2
5
10

$$$$
