54067425
  -OEChem-09072001593D

 82 86  0     1  0  0  0  0  0999 V2000
   -7.0488   -1.1695    0.0881 O   0  0  0  0  0  0  0  0  0  0  0  0
   -4.7238   -2.2355    1.3879 O   0  0  0  0  0  0  0  0  0  0  0  0
    4.5995    2.5824   -1.0077 O   0  0  0  0  0  0  0  0  0  0  0  0
    3.4664    0.8820   -2.0179 O   0  0  0  0  0  0  0  0  0  0  0  0
   -0.6502    1.0016   -0.0048 C   0  0  2  0  0  0  0  0  0  0  0  0
   -1.3247   -0.3844   -0.3238 C   0  0  1  0  0  0  0  0  0  0  0  0
   -2.8751   -0.4024   -0.7062 C   0  0  2  0  0  0  0  0  0  0  0  0
    0.7829    0.7203    0.7375 C   0  0  1  0  0  0  0  0  0  0  0  0
   -3.6502    0.4962    0.3175 C   0  0  1  0  0  0  0  0  0  0  0  0
   -1.5939    1.8430    0.8952 C   0  0  0  0  0  0  0  0  0  0  0  0
   -3.0388    1.9085    0.4032 C   0  0  0  0  0  0  0  0  0  0  0  0
    1.5983   -0.3772    0.0043 C   0  0  0  0  0  0  0  0  0  0  0  0
   -5.2239    0.4843    0.1924 C   0  0  0  0  0  0  0  0  0  0  0  0
    3.0808   -0.5188    0.4075 C   0  0  2  0  0  0  0  0  0  0  0  0
   -0.4298   -1.1930   -1.2837 C   0  0  0  0  0  0  0  0  0  0  0  0
   -3.3852   -1.8869   -0.5778 C   0  0  0  0  0  0  0  0  0  0  0  0
    1.6170    2.0396    0.8108 C   0  0  0  0  0  0  0  0  0  0  0  0
    3.8254    0.8391    0.3881 C   0  0  1  0  0  0  0  0  0  0  0  0
   -0.4086    1.8112   -1.3143 C   0  0  0  0  0  0  0  0  0  0  0  0
    3.0713    1.8642    1.2565 C   0  0  0  0  0  0  0  0  0  0  0  0
   -5.7237   -0.8862   -0.3647 C   0  0  1  0  0  0  0  0  0  0  0  0
   -3.1357    0.0367   -2.1693 C   0  0  0  0  0  0  0  0  0  0  0  0
   -4.8067   -2.0606   -0.0273 C   0  0  2  0  0  0  0  0  0  0  0  0
    1.0190   -1.1915   -0.8999 C   0  0  0  0  0  0  0  0  0  0  0  0
    0.5795    0.2257    2.2026 C   0  0  0  0  0  0  0  0  0  0  0  0
    3.8964   -1.6086   -0.3360 C   0  0  0  0  0  0  0  0  0  0  0  0
    5.2634    0.6849    0.9279 C   0  0  0  0  0  0  0  0  0  0  0  0
    5.3507   -1.7664    0.1720 C   0  0  0  0  0  0  0  0  0  0  0  0
   -5.7740    1.6016   -0.7262 C   0  0  0  0  0  0  0  0  0  0  0  0
   -5.8270    0.7673    1.5977 C   0  0  0  0  0  0  0  0  0  0  0  0
    6.0600   -0.3987    0.1980 C   0  0  0  0  0  0  0  0  0  0  0  0
    3.9254    1.4066   -1.0140 C   0  0  0  0  0  0  0  0  0  0  0  0
    5.3726   -2.4115    1.5724 C   0  0  0  0  0  0  0  0  0  0  0  0
    6.1118   -2.7041   -0.7861 C   0  0  0  0  0  0  0  0  0  0  0  0
   -1.3008   -0.9329    0.6276 H   0  0  0  0  0  0  0  0  0  0  0  0
   -3.4412    0.0396    1.2986 H   0  0  0  0  0  0  0  0  0  0  0  0
   -1.2089    2.8640    1.0042 H   0  0  0  0  0  0  0  0  0  0  0  0
   -1.6380    1.4264    1.9058 H   0  0  0  0  0  0  0  0  0  0  0  0
   -3.5993    2.5207    1.1183 H   0  0  0  0  0  0  0  0  0  0  0  0
   -3.0919    2.4340   -0.5547 H   0  0  0  0  0  0  0  0  0  0  0  0
    3.0526   -0.8546    1.4519 H   0  0  0  0  0  0  0  0  0  0  0  0
   -0.4881   -0.8160   -2.3088 H   0  0  0  0  0  0  0  0  0  0  0  0
   -0.7683   -2.2349   -1.3115 H   0  0  0  0  0  0  0  0  0  0  0  0
   -2.7039   -2.4681    0.0563 H   0  0  0  0  0  0  0  0  0  0  0  0
   -3.3379   -2.3619   -1.5670 H   0  0  0  0  0  0  0  0  0  0  0  0
    1.1298    2.7516    1.4885 H   0  0  0  0  0  0  0  0  0  0  0  0
    1.6572    2.5348   -0.1629 H   0  0  0  0  0  0  0  0  0  0  0  0
    0.4186    1.4106   -1.9080 H   0  0  0  0  0  0  0  0  0  0  0  0
   -0.1801    2.8612   -1.0996 H   0  0  0  0  0  0  0  0  0  0  0  0
   -1.2767    1.8405   -1.9663 H   0  0  0  0  0  0  0  0  0  0  0  0
    3.5631    2.8452    1.2359 H   0  0  0  0  0  0  0  0  0  0  0  0
    3.0930    1.5498    2.3075 H   0  0  0  0  0  0  0  0  0  0  0  0
   -5.8062   -0.8294   -1.4549 H   0  0  0  0  0  0  0  0  0  0  0  0
   -2.4347   -0.4177   -2.8729 H   0  0  0  0  0  0  0  0  0  0  0  0
   -4.1223   -0.2711   -2.5231 H   0  0  0  0  0  0  0  0  0  0  0  0
   -3.0969    1.1168   -2.3074 H   0  0  0  0  0  0  0  0  0  0  0  0
   -5.2391   -2.9900   -0.4166 H   0  0  0  0  0  0  0  0  0  0  0  0
    1.6043   -1.9461   -1.4157 H   0  0  0  0  0  0  0  0  0  0  0  0
    0.1651    1.0122    2.8416 H   0  0  0  0  0  0  0  0  0  0  0  0
    1.5169   -0.0685    2.6843 H   0  0  0  0  0  0  0  0  0  0  0  0
   -0.0790   -0.6446    2.2657 H   0  0  0  0  0  0  0  0  0  0  0  0
    3.3908   -2.5773   -0.2202 H   0  0  0  0  0  0  0  0  0  0  0  0
    3.9128   -1.4081   -1.4135 H   0  0  0  0  0  0  0  0  0  0  0  0
    5.8217    1.6277    0.8695 H   0  0  0  0  0  0  0  0  0  0  0  0
    5.2263    0.4381    1.9966 H   0  0  0  0  0  0  0  0  0  0  0  0
   -5.5570   -0.0096    2.3194 H   0  0  0  0  0  0  0  0  0  0  0  0
   -5.5520    2.6000   -0.3344 H   0  0  0  0  0  0  0  0  0  0  0  0
   -5.3657    1.5442   -1.7378 H   0  0  0  0  0  0  0  0  0  0  0  0
   -6.8648    1.5309   -0.8150 H   0  0  0  0  0  0  0  0  0  0  0  0
   -5.4768    1.7228    2.0018 H   0  0  0  0  0  0  0  0  0  0  0  0
   -6.9210    0.8240    1.5657 H   0  0  0  0  0  0  0  0  0  0  0  0
    6.2504   -0.0633   -0.8299 H   0  0  0  0  0  0  0  0  0  0  0  0
    7.0462   -0.4943    0.6700 H   0  0  0  0  0  0  0  0  0  0  0  0
   -7.3261   -2.0090   -0.3165 H   0  0  0  0  0  0  0  0  0  0  0  0
    4.8823   -3.3916    1.5604 H   0  0  0  0  0  0  0  0  0  0  0  0
    4.8657   -1.8022    2.3257 H   0  0  0  0  0  0  0  0  0  0  0  0
    6.4020   -2.5630    1.9173 H   0  0  0  0  0  0  0  0  0  0  0  0
    5.6393   -3.6918   -0.8314 H   0  0  0  0  0  0  0  0  0  0  0  0
    7.1494   -2.8438   -0.4621 H   0  0  0  0  0  0  0  0  0  0  0  0
    6.1341   -2.2997   -1.8044 H   0  0  0  0  0  0  0  0  0  0  0  0
   -4.2131   -3.0455    1.5570 H   0  0  0  0  0  0  0  0  0  0  0  0
    4.6755    2.9656   -1.9074 H   0  0  0  0  0  0  0  0  0  0  0  0
  1 21  1  0  0  0  0
  1 74  1  0  0  0  0
  2 23  1  0  0  0  0
  2 81  1  0  0  0  0
  3 32  1  0  0  0  0
  3 82  1  0  0  0  0
  4 32  2  0  0  0  0
  5  6  1  0  0  0  0
  5  8  1  0  0  0  0
  5 10  1  0  0  0  0
  5 19  1  0  0  0  0
  6  7  1  0  0  0  0
  6 15  1  0  0  0  0
  6 35  1  0  0  0  0
  7  9  1  0  0  0  0
  7 16  1  0  0  0  0
  7 22  1  0  0  0  0
  8 12  1  0  0  0  0
  8 17  1  0  0  0  0
  8 25  1  0  0  0  0
  9 11  1  0  0  0  0
  9 13  1  0  0  0  0
  9 36  1  0  0  0  0
 10 11  1  0  0  0  0
 10 37  1  0  0  0  0
 10 38  1  0  0  0  0
 11 39  1  0  0  0  0
 11 40  1  0  0  0  0
 12 14  1  0  0  0  0
 12 24  2  0  0  0  0
 13 21  1  0  0  0  0
 13 29  1  0  0  0  0
 13 30  1  0  0  0  0
 14 18  1  0  0  0  0
 14 26  1  0  0  0  0
 14 41  1  0  0  0  0
 15 24  1  0  0  0  0
 15 42  1  0  0  0  0
 15 43  1  0  0  0  0
 16 23  1  0  0  0  0
 16 44  1  0  0  0  0
 16 45  1  0  0  0  0
 17 20  1  0  0  0  0
 17 46  1  0  0  0  0
 17 47  1  0  0  0  0
 18 20  1  0  0  0  0
 18 27  1  0  0  0  0
 18 32  1  0  0  0  0
 19 48  1  0  0  0  0
 19 49  1  0  0  0  0
 19 50  1  0  0  0  0
 20 51  1  0  0  0  0
 20 52  1  0  0  0  0
 21 23  1  0  0  0  0
 21 53  1  0  0  0  0
 22 54  1  0  0  0  0
 22 55  1  0  0  0  0
 22 56  1  0  0  0  0
 23 57  1  0  0  0  0
 24 58  1  0  0  0  0
 25 59  1  0  0  0  0
 25 60  1  0  0  0  0
 25 61  1  0  0  0  0
 26 28  1  0  0  0  0
 26 62  1  0  0  0  0
 26 63  1  0  0  0  0
 27 31  1  0  0  0  0
 27 64  1  0  0  0  0
 27 65  1  0  0  0  0
 28 31  1  0  0  0  0
 28 33  1  0  0  0  0
 28 34  1  0  0  0  0
 29 67  1  0  0  0  0
 29 68  1  0  0  0  0
 29 69  1  0  0  0  0
 30 66  1  0  0  0  0
 30 70  1  0  0  0  0
 30 71  1  0  0  0  0
 31 72  1  0  0  0  0
 31 73  1  0  0  0  0
 33 75  1  0  0  0  0
 33 76  1  0  0  0  0
 33 77  1  0  0  0  0
 34 78  1  0  0  0  0
 34 79  1  0  0  0  0
 34 80  1  0  0  0  0
M  END
> <PUBCHEM_COMPOUND_CID>
54067425

> <PUBCHEM_CONFORMER_RMSD>
0.8

> <PUBCHEM_CONFORMER_DIVERSEORDER>
1
5
6
7
3
4
2

> <PUBCHEM_MMFF94_PARTIAL_CHARGES>
17
1 -0.68
12 -0.28
14 0.14
15 0.14
18 0.06
2 -0.68
21 0.28
23 0.28
24 -0.29
3 -0.65
32 0.66
4 -0.57
58 0.15
74 0.4
8 0.14
81 0.4
82 0.5

> <PUBCHEM_EFFECTIVE_ROTOR_COUNT>
3.6

> <PUBCHEM_PHARMACOPHORE_FEATURES>
14
1 1 acceptor
1 1 donor
1 2 acceptor
1 2 donor
1 3 acceptor
1 4 acceptor
3 13 29 30 hydrophobe
3 28 33 34 hydrophobe
3 3 4 32 anion
6 14 18 26 27 28 31 rings
6 5 6 7 9 10 11 rings
6 5 6 8 12 15 24 rings
6 7 9 13 16 21 23 rings
6 8 12 14 17 18 20 rings

> <PUBCHEM_HEAVY_ATOM_COUNT>
34

> <PUBCHEM_ATOM_DEF_STEREO_COUNT>
6

> <PUBCHEM_ATOM_UDEF_STEREO_COUNT>
3

> <PUBCHEM_BOND_DEF_STEREO_COUNT>
0

> <PUBCHEM_BOND_UDEF_STEREO_COUNT>
0

> <PUBCHEM_ISOTOPIC_ATOM_COUNT>
0

> <PUBCHEM_COMPONENT_COUNT>
1

> <PUBCHEM_CACTVS_TAUTO_COUNT>
1

> <PUBCHEM_CONFORMER_ID>
033900E100000001

> <PUBCHEM_MMFF94_ENERGY>
154.3459

> <PUBCHEM_FEATURE_SELFOVERLAP>
71.162

> <PUBCHEM_SHAPE_FINGERPRINT>
11135609 12 18410284801483923890
11578080 2 14925376198688216340
11719270 70 17988640766059164839
11756154 67 17767976333819588998
12107698 1 17894629215249777948
12166972 35 18186524302011074412
12236239 1 18334575741487404125
12422481 6 17988925539501777518
12616971 3 17917422133736533444
12633257 1 16702299104668028831
12788726 201 17346611772026316032
13224815 77 18202561795629809317
13533116 47 18409729582265874408
13782708 43 17676203559095350731
13811026 1 18272363153364150054
14341114 176 18413670209900549714
14856354 85 18337679719295979047
14955137 171 18337674221527122581
15142383 8 18340762650704551572
15183329 4 18272371966441524889
15238133 3 17131837525621261465
15788980 27 18335138678529276897
15799311 1 18336560394340488131
17349148 13 13262395557581264669
17844677 252 18040715848753453325
17857418 61 18343017783159371738
1813 80 17749103404767695884
1979834 28 16773801377020901894
19958102 18 17821721754331735867
21033648 29 15482680057032452337
21130935 74 17988640787549877202
21267235 1 18202003193016936214
21682296 61 17774165582917725558
21792934 111 18201431451101865025
23522609 53 18127439871466011753
23559900 14 18342448253680413857
23569943 247 17315061165260332755
3004659 81 18411418389282213770
335352 9 18201997694572373013
338550 245 18412544319074518630
3411729 13 16772653603183348280
34797466 226 17023183876574094885
350125 39 18341892974643779132
3680242 22 18202571661248679698
392239 28 18341620304408314131
4073 2 18187648067345408322
4098825 35 18113899364605706892
4144715 1 18114467850650438801
439807 62 18409730677440603411
460360 51 17845109388776970114
46194498 28 18040150730569411644
5104073 3 18201998837070551915
6081469 158 18335695041041921367
6086070 43 17274240830296632969
7495541 125 18343300392181697328

> <PUBCHEM_SHAPE_MULTIPOLES>
676.23
16.24
2.65
1.58
3.65
0.36
-0.04
6.17
1.7
-1.47
0.08
-0.12
-0.16
-0.36

> <PUBCHEM_SHAPE_SELFOVERLAP>
1440.686

> <PUBCHEM_SHAPE_VOLUME>
370.5

> <PUBCHEM_COORDINATE_TYPE>
2
5
10

$$$$
