5319292
  -OEChem-09072001513D

 86 89  0     1  0  0  0  0  0999 V2000
   -0.1083    1.8258   -0.0599 O   0  0  0  0  0  0  0  0  0  0  0  0
    2.4416   -1.1975    1.0471 O   0  0  0  0  0  0  0  0  0  0  0  0
   -1.8628    2.8871    1.1345 O   0  0  0  0  0  0  0  0  0  0  0  0
   -1.1611   -0.8033    0.5191 O   0  0  0  0  0  0  0  0  0  0  0  0
    4.1413    0.3201    1.5488 O   0  0  0  0  0  0  0  0  0  0  0  0
    2.2254    2.4007    1.6442 O   0  0  0  0  0  0  0  0  0  0  0  0
   -0.6481    5.3880    0.4066 O   0  0  0  0  0  0  0  0  0  0  0  0
   -1.5291    5.2876   -2.2312 O   0  0  0  0  0  0  0  0  0  0  0  0
   -3.8248    3.6247   -1.8979 O   0  0  0  0  0  0  0  0  0  0  0  0
    1.6864   -3.8245    1.3377 O   0  0  0  0  0  0  0  0  0  0  0  0
   -1.3935   -1.1040   -1.7598 O   0  0  0  0  0  0  0  0  0  0  0  0
    7.4222    0.8476   -2.2754 O   0  0  0  0  0  0  0  0  0  0  0  0
    8.4755   -1.7074   -2.5741 O   0  0  0  0  0  0  0  0  0  0  0  0
   -8.0993   -1.4463    1.6042 O   0  0  0  0  0  0  0  0  0  0  0  0
   -9.5678   -2.8280   -0.3078 O   0  0  0  0  0  0  0  0  0  0  0  0
    0.5006    0.9105    0.8523 C   0  0  1  0  0  0  0  0  0  0  0  0
    0.2234   -0.5081    0.3544 C   0  0  1  0  0  0  0  0  0  0  0  0
    2.0021    1.1878    0.9255 C   0  0  2  0  0  0  0  0  0  0  0  0
    1.0548   -1.5295    1.1341 C   0  0  1  0  0  0  0  0  0  0  0  0
   -0.5399    3.0103    0.6011 C   0  0  2  0  0  0  0  0  0  0  0  0
   -0.4540    4.1967   -0.3573 C   0  0  1  0  0  0  0  0  0  0  0  0
    2.7412    0.0608    1.6468 C   0  0  1  0  0  0  0  0  0  0  0  0
   -1.5223    4.0965   -1.4475 C   0  0  1  0  0  0  0  0  0  0  0  0
   -2.9088    3.8869   -0.8377 C   0  0  2  0  0  0  0  0  0  0  0  0
   -2.8803    2.7074    0.1442 C   0  0  2  0  0  0  0  0  0  0  0  0
    0.8837   -2.9396    0.5778 C   0  0  0  0  0  0  0  0  0  0  0  0
   -4.2037    2.5505    0.8882 C   0  0  0  0  0  0  0  0  0  0  0  0
    4.8675   -0.3861    2.5425 C   0  0  0  0  0  0  0  0  0  0  0  0
   -1.8459   -1.0829   -0.6261 C   0  0  0  0  0  0  0  0  0  0  0  0
    6.3544   -0.0736    2.4142 C   0  0  0  0  0  0  0  0  0  0  0  0
   -3.2529   -1.3594   -0.2573 C   0  0  0  0  0  0  0  0  0  0  0  0
    6.9188   -0.5061    1.0827 C   0  0  0  0  0  0  0  0  0  0  0  0
   -4.1397   -1.6626   -1.2158 C   0  0  0  0  0  0  0  0  0  0  0  0
    6.9121    0.3764    0.0024 C   0  0  0  0  0  0  0  0  0  0  0  0
    7.4474   -1.7881    0.9327 C   0  0  0  0  0  0  0  0  0  0  0  0
    7.4342   -0.0232   -1.2279 C   0  0  0  0  0  0  0  0  0  0  0  0
    7.9691   -2.1878   -0.2976 C   0  0  0  0  0  0  0  0  0  0  0  0
   -5.5612   -1.9668   -0.9747 C   0  0  0  0  0  0  0  0  0  0  0  0
    7.9627   -1.3053   -1.3779 C   0  0  0  0  0  0  0  0  0  0  0  0
   -6.1699   -1.5598    0.2125 C   0  0  0  0  0  0  0  0  0  0  0  0
   -6.2982   -2.6616   -1.9338 C   0  0  0  0  0  0  0  0  0  0  0  0
   -7.5156   -1.8474    0.4407 C   0  0  0  0  0  0  0  0  0  0  0  0
   -7.6437   -2.9495   -1.7055 C   0  0  0  0  0  0  0  0  0  0  0  0
   -8.2526   -2.5423   -0.5184 C   0  0  0  0  0  0  0  0  0  0  0  0
    8.9962   -3.0335   -2.6433 C   0  0  0  0  0  0  0  0  0  0  0  0
   -7.2772   -0.7412    2.5323 C   0  0  0  0  0  0  0  0  0  0  0  0
    0.0355    1.0227    1.8426 H   0  0  0  0  0  0  0  0  0  0  0  0
    0.5305   -0.5454   -0.6999 H   0  0  0  0  0  0  0  0  0  0  0  0
    2.4103    1.3361   -0.0813 H   0  0  0  0  0  0  0  0  0  0  0  0
    0.7641   -1.5451    2.1933 H   0  0  0  0  0  0  0  0  0  0  0  0
    0.0862    3.2406    1.4664 H   0  0  0  0  0  0  0  0  0  0  0  0
    0.5364    4.2618   -0.8224 H   0  0  0  0  0  0  0  0  0  0  0  0
    2.4499    0.0453    2.7065 H   0  0  0  0  0  0  0  0  0  0  0  0
   -1.2893    3.2688   -2.1291 H   0  0  0  0  0  0  0  0  0  0  0  0
   -3.2390    4.8056   -0.3385 H   0  0  0  0  0  0  0  0  0  0  0  0
   -2.6938    1.7714   -0.3953 H   0  0  0  0  0  0  0  0  0  0  0  0
    1.2213   -2.9925   -0.4626 H   0  0  0  0  0  0  0  0  0  0  0  0
   -0.1562   -3.2736    0.6388 H   0  0  0  0  0  0  0  0  0  0  0  0
   -5.0329    2.3655    0.1989 H   0  0  0  0  0  0  0  0  0  0  0  0
   -4.1468    1.7140    1.5936 H   0  0  0  0  0  0  0  0  0  0  0  0
   -4.4290    3.4454    1.4785 H   0  0  0  0  0  0  0  0  0  0  0  0
    1.9159    2.2717    2.5571 H   0  0  0  0  0  0  0  0  0  0  0  0
    0.0847    5.4525    1.0426 H   0  0  0  0  0  0  0  0  0  0  0  0
   -0.6363    5.4002   -2.5994 H   0  0  0  0  0  0  0  0  0  0  0  0
   -3.5600    2.7929   -2.3262 H   0  0  0  0  0  0  0  0  0  0  0  0
    4.5272   -0.0760    3.5376 H   0  0  0  0  0  0  0  0  0  0  0  0
    4.6949   -1.4637    2.4340 H   0  0  0  0  0  0  0  0  0  0  0  0
    1.5661   -4.7140    0.9638 H   0  0  0  0  0  0  0  0  0  0  0  0
    6.9084   -0.5606    3.2259 H   0  0  0  0  0  0  0  0  0  0  0  0
    6.5173    1.0053    2.5329 H   0  0  0  0  0  0  0  0  0  0  0  0
   -3.4974   -1.3249    0.7978 H   0  0  0  0  0  0  0  0  0  0  0  0
   -3.8264   -1.7082   -2.2563 H   0  0  0  0  0  0  0  0  0  0  0  0
    6.5004    1.3759    0.1198 H   0  0  0  0  0  0  0  0  0  0  0  0
    7.4558   -2.4843    1.7674 H   0  0  0  0  0  0  0  0  0  0  0  0
    8.3621   -3.1977   -0.3407 H   0  0  0  0  0  0  0  0  0  0  0  0
   -5.5833   -0.9967    0.9270 H   0  0  0  0  0  0  0  0  0  0  0  0
   -5.8398   -2.9877   -2.8643 H   0  0  0  0  0  0  0  0  0  0  0  0
    7.0192    1.6846   -1.9875 H   0  0  0  0  0  0  0  0  0  0  0  0
   -8.2062   -3.4917   -2.4610 H   0  0  0  0  0  0  0  0  0  0  0  0
    8.2160   -3.7829   -2.4717 H   0  0  0  0  0  0  0  0  0  0  0  0
    9.8551   -3.1652   -1.9764 H   0  0  0  0  0  0  0  0  0  0  0  0
    9.3612   -3.1834   -3.6647 H   0  0  0  0  0  0  0  0  0  0  0  0
   -9.9139   -3.3123   -1.0770 H   0  0  0  0  0  0  0  0  0  0  0  0
   -7.9022   -0.5063    3.4004 H   0  0  0  0  0  0  0  0  0  0  0  0
   -6.9335    0.2152    2.1231 H   0  0  0  0  0  0  0  0  0  0  0  0
   -6.4520   -1.3628    2.8967 H   0  0  0  0  0  0  0  0  0  0  0  0
  1 16  1  0  0  0  0
  1 20  1  0  0  0  0
  2 19  1  0  0  0  0
  2 22  1  0  0  0  0
  3 20  1  0  0  0  0
  3 25  1  0  0  0  0
  4 17  1  0  0  0  0
  4 29  1  0  0  0  0
  5 22  1  0  0  0  0
  5 28  1  0  0  0  0
  6 18  1  0  0  0  0
  6 62  1  0  0  0  0
  7 21  1  0  0  0  0
  7 63  1  0  0  0  0
  8 23  1  0  0  0  0
  8 64  1  0  0  0  0
  9 24  1  0  0  0  0
  9 65  1  0  0  0  0
 10 26  1  0  0  0  0
 10 68  1  0  0  0  0
 11 29  2  0  0  0  0
 12 36  1  0  0  0  0
 12 78  1  0  0  0  0
 13 39  1  0  0  0  0
 13 45  1  0  0  0  0
 14 42  1  0  0  0  0
 14 46  1  0  0  0  0
 15 44  1  0  0  0  0
 15 83  1  0  0  0  0
 16 17  1  0  0  0  0
 16 18  1  0  0  0  0
 16 47  1  0  0  0  0
 17 19  1  0  0  0  0
 17 48  1  0  0  0  0
 18 22  1  0  0  0  0
 18 49  1  0  0  0  0
 19 26  1  0  0  0  0
 19 50  1  0  0  0  0
 20 21  1  0  0  0  0
 20 51  1  0  0  0  0
 21 23  1  0  0  0  0
 21 52  1  0  0  0  0
 22 53  1  0  0  0  0
 23 24  1  0  0  0  0
 23 54  1  0  0  0  0
 24 25  1  0  0  0  0
 24 55  1  0  0  0  0
 25 27  1  0  0  0  0
 25 56  1  0  0  0  0
 26 57  1  0  0  0  0
 26 58  1  0  0  0  0
 27 59  1  0  0  0  0
 27 60  1  0  0  0  0
 27 61  1  0  0  0  0
 28 30  1  0  0  0  0
 28 66  1  0  0  0  0
 28 67  1  0  0  0  0
 29 31  1  0  0  0  0
 30 32  1  0  0  0  0
 30 69  1  0  0  0  0
 30 70  1  0  0  0  0
 31 33  2  0  0  0  0
 31 71  1  0  0  0  0
 32 34  2  0  0  0  0
 32 35  1  0  0  0  0
 33 38  1  0  0  0  0
 33 72  1  0  0  0  0
 34 36  1  0  0  0  0
 34 73  1  0  0  0  0
 35 37  2  0  0  0  0
 35 74  1  0  0  0  0
 36 39  2  0  0  0  0
 37 39  1  0  0  0  0
 37 75  1  0  0  0  0
 38 40  2  0  0  0  0
 38 41  1  0  0  0  0
 40 42  1  0  0  0  0
 40 76  1  0  0  0  0
 41 43  2  0  0  0  0
 41 77  1  0  0  0  0
 42 44  2  0  0  0  0
 43 44  1  0  0  0  0
 43 79  1  0  0  0  0
 45 80  1  0  0  0  0
 45 81  1  0  0  0  0
 45 82  1  0  0  0  0
 46 84  1  0  0  0  0
 46 85  1  0  0  0  0
 46 86  1  0  0  0  0
M  END
> <PUBCHEM_COMPOUND_CID>
5319292

> <PUBCHEM_CONFORMER_RMSD>
1.4

> <PUBCHEM_CONFORMER_DIVERSEORDER>
1
23
14
20
16
27
28
10
12
21
15
9
7
26
18
29
17
5
8
24
19
22
11
25
13
6
3
4
2

> <PUBCHEM_MMFF94_PARTIAL_CHARGES>
60
1 -0.56
10 -0.68
11 -0.57
12 -0.53
13 -0.36
14 -0.36
15 -0.53
16 0.28
17 0.28
18 0.28
19 0.28
2 -0.56
20 0.56
21 0.28
22 0.56
23 0.28
24 0.28
25 0.28
26 0.28
28 0.28
29 0.71
3 -0.56
30 0.14
31 -0.14
32 -0.14
33 -0.18
34 -0.15
35 -0.15
36 0.08
37 -0.15
38 0.03
39 0.08
4 -0.43
40 -0.15
41 -0.15
42 0.08
43 -0.15
44 0.08
45 0.28
46 0.28
5 -0.56
6 -0.68
62 0.4
63 0.4
64 0.4
65 0.4
68 0.4
7 -0.68
71 0.15
72 0.15
73 0.15
74 0.15
75 0.15
76 0.15
77 0.15
78 0.45
79 0.15
8 -0.68
83 0.45
9 -0.68

> <PUBCHEM_EFFECTIVE_ROTOR_COUNT>
15.4

> <PUBCHEM_PHARMACOPHORE_FEATURES>
23
1 1 acceptor
1 10 acceptor
1 10 donor
1 11 acceptor
1 12 donor
1 13 acceptor
1 14 acceptor
1 15 donor
1 2 acceptor
1 3 acceptor
1 5 acceptor
1 6 acceptor
1 6 donor
1 7 acceptor
1 7 donor
1 8 acceptor
1 8 donor
1 9 acceptor
1 9 donor
6 2 16 17 18 19 22 rings
6 3 20 21 23 24 25 rings
6 32 34 35 36 37 39 rings
6 38 40 41 42 43 44 rings

> <PUBCHEM_HEAVY_ATOM_COUNT>
46

> <PUBCHEM_ATOM_DEF_STEREO_COUNT>
10

> <PUBCHEM_ATOM_UDEF_STEREO_COUNT>
0

> <PUBCHEM_BOND_DEF_STEREO_COUNT>
1

> <PUBCHEM_BOND_UDEF_STEREO_COUNT>
0

> <PUBCHEM_ISOTOPIC_ATOM_COUNT>
0

> <PUBCHEM_COMPONENT_COUNT>
1

> <PUBCHEM_CACTVS_TAUTO_COUNT>
26

> <PUBCHEM_CONFORMER_ID>
00512A7C00000001

> <PUBCHEM_MMFF94_ENERGY>
148.9005

> <PUBCHEM_FEATURE_SELFOVERLAP>
116.854

> <PUBCHEM_SHAPE_FINGERPRINT>
10190108 129 18412262852561207299
11331351 85 17846210120233792577
13617811 41 18334852849373768922
13782708 43 17560792235181452246
14040222 275 18336549429346951770
14295346 376 18270971141520780702
15198563 99 18334850593709278949
15400415 2 17329124894122474029
16989713 51 18409726223485917677
16991971 28 18337390547384699267
21792938 79 15357709577692788172
21792965 169 18113625560873161726
21792965 25 16844185441109709875
21927370 108 18335139804733764353
23576562 1 18260267447591310604
25269216 80 18410575077144010238
3552219 110 17748829605282379037
44880168 125 17560226028931035118

> <PUBCHEM_SHAPE_MULTIPOLES>
858.62
28.09
6.07
2.43
14.55
8.57
-0.3
-34.09
-8.21
-7.53
-2.99
2.75
-0.36
1.51

> <PUBCHEM_SHAPE_SELFOVERLAP>
1811.04

> <PUBCHEM_SHAPE_VOLUME>
476.4

> <PUBCHEM_COORDINATE_TYPE>
2
5
10

$$$$
