11754080
  -OEChem-09072001403D

 62 64  0     1  0  0  0  0  0999 V2000
   -2.3302    0.0292   -0.2155 O   0  0  0  0  0  0  0  0  0  0  0  0
    1.1523   -2.1431   -0.0711 O   0  0  0  0  0  0  0  0  0  0  0  0
   -4.3696   -0.2488    0.9655 O   0  0  0  0  0  0  0  0  0  0  0  0
   -2.3192   -2.7287   -1.0810 O   0  0  0  0  0  0  0  0  0  0  0  0
    2.1389   -0.6039    1.3785 O   0  0  0  0  0  0  0  0  0  0  0  0
   -0.4244    0.4238    1.9965 O   0  0  0  0  0  0  0  0  0  0  0  0
   -4.1847    2.5370    1.6474 O   0  0  0  0  0  0  0  0  0  0  0  0
   -4.9317    3.4209   -0.8835 O   0  0  0  0  0  0  0  0  0  0  0  0
   -6.4298    1.1520   -1.7516 O   0  0  0  0  0  0  0  0  0  0  0  0
    1.4438   -4.6637   -1.1283 O   0  0  0  0  0  0  0  0  0  0  0  0
    4.3876    3.5524   -0.4031 O   0  0  0  0  0  0  0  0  0  0  0  0
    6.1670    2.5560   -2.2920 O   0  0  0  0  0  0  0  0  0  0  0  0
   -1.4387   -0.9606    0.3002 C   0  0  1  0  0  0  0  0  0  0  0  0
   -1.1469   -1.9623   -0.8172 C   0  0  1  0  0  0  0  0  0  0  0  0
   -0.1563   -0.2863    0.7877 C   0  0  2  0  0  0  0  0  0  0  0  0
   -3.1860    0.5396    0.8010 C   0  0  2  0  0  0  0  0  0  0  0  0
   -0.0065   -2.9025   -0.4196 C   0  0  1  0  0  0  0  0  0  0  0  0
   -3.5450    1.9920    0.4923 C   0  0  1  0  0  0  0  0  0  0  0  0
   -4.4830    2.0784   -0.7129 C   0  0  1  0  0  0  0  0  0  0  0  0
    0.9400   -1.3138    1.0690 C   0  0  1  0  0  0  0  0  0  0  0  0
   -5.6937    1.1622   -0.5309 C   0  0  2  0  0  0  0  0  0  0  0  0
   -5.2317   -0.2582   -0.1769 C   0  0  2  0  0  0  0  0  0  0  0  0
    0.3813   -3.8348   -1.5630 C   0  0  0  0  0  0  0  0  0  0  0  0
   -6.4055   -1.1745    0.1580 C   0  0  0  0  0  0  0  0  0  0  0  0
    3.2092   -1.4941    1.6533 C   0  0  0  0  0  0  0  0  0  0  0  0
    4.4661   -0.7001    1.9918 C   0  0  0  0  0  0  0  0  0  0  0  0
    4.9188    0.1735    0.8472 C   0  0  0  0  0  0  0  0  0  0  0  0
    4.4390    1.4701    0.7510 C   0  0  0  0  0  0  0  0  0  0  0  0
    5.8062   -0.3369   -0.0870 C   0  0  0  0  0  0  0  0  0  0  0  0
    4.8577    2.2774   -0.3066 C   0  0  0  0  0  0  0  0  0  0  0  0
    6.2247    0.4703   -1.1447 C   0  0  0  0  0  0  0  0  0  0  0  0
    5.7506    1.7776   -1.2546 C   0  0  0  0  0  0  0  0  0  0  0  0
   -1.9294   -1.4935    1.1276 H   0  0  0  0  0  0  0  0  0  0  0  0
   -0.8964   -1.4191   -1.7366 H   0  0  0  0  0  0  0  0  0  0  0  0
    0.1823    0.4517    0.0497 H   0  0  0  0  0  0  0  0  0  0  0  0
   -2.7043    0.5258    1.7821 H   0  0  0  0  0  0  0  0  0  0  0  0
   -0.2886   -3.5225    0.4424 H   0  0  0  0  0  0  0  0  0  0  0  0
   -2.6482    2.5924    0.3049 H   0  0  0  0  0  0  0  0  0  0  0  0
   -3.9410    1.8056   -1.6270 H   0  0  0  0  0  0  0  0  0  0  0  0
    0.6731   -1.9297    1.9388 H   0  0  0  0  0  0  0  0  0  0  0  0
   -6.3515    1.5716    0.2455 H   0  0  0  0  0  0  0  0  0  0  0  0
   -4.6982   -0.7060   -1.0252 H   0  0  0  0  0  0  0  0  0  0  0  0
    0.7310   -3.2742   -2.4363 H   0  0  0  0  0  0  0  0  0  0  0  0
   -0.4530   -4.4741   -1.8652 H   0  0  0  0  0  0  0  0  0  0  0  0
   -6.0410   -2.1614    0.4641 H   0  0  0  0  0  0  0  0  0  0  0  0
   -7.0758   -1.3070   -0.6957 H   0  0  0  0  0  0  0  0  0  0  0  0
   -6.9822   -0.7782    1.0010 H   0  0  0  0  0  0  0  0  0  0  0  0
   -2.5464   -3.2193   -0.2728 H   0  0  0  0  0  0  0  0  0  0  0  0
    0.4099    0.8318    2.2853 H   0  0  0  0  0  0  0  0  0  0  0  0
   -4.8936    1.9306    1.9204 H   0  0  0  0  0  0  0  0  0  0  0  0
   -5.5402    3.4303   -1.6421 H   0  0  0  0  0  0  0  0  0  0  0  0
   -7.2765    0.7055   -1.5839 H   0  0  0  0  0  0  0  0  0  0  0  0
    2.9464   -2.1302    2.5068 H   0  0  0  0  0  0  0  0  0  0  0  0
    3.4073   -2.1368    0.7875 H   0  0  0  0  0  0  0  0  0  0  0  0
    2.1772   -4.0848   -0.8583 H   0  0  0  0  0  0  0  0  0  0  0  0
    5.2734   -1.3858    2.2770 H   0  0  0  0  0  0  0  0  0  0  0  0
    4.2779   -0.0668    2.8685 H   0  0  0  0  0  0  0  0  0  0  0  0
    3.7434    1.8572    1.4911 H   0  0  0  0  0  0  0  0  0  0  0  0
    6.1792   -1.3542   -0.0108 H   0  0  0  0  0  0  0  0  0  0  0  0
    6.9199    0.0747   -1.8801 H   0  0  0  0  0  0  0  0  0  0  0  0
    3.7813    3.7238    0.3379 H   0  0  0  0  0  0  0  0  0  0  0  0
    5.7405    3.4268   -2.2113 H   0  0  0  0  0  0  0  0  0  0  0  0
  1 13  1  0  0  0  0
  1 16  1  0  0  0  0
  2 17  1  0  0  0  0
  2 20  1  0  0  0  0
  3 16  1  0  0  0  0
  3 22  1  0  0  0  0
  4 14  1  0  0  0  0
  4 48  1  0  0  0  0
  5 20  1  0  0  0  0
  5 25  1  0  0  0  0
  6 15  1  0  0  0  0
  6 49  1  0  0  0  0
  7 18  1  0  0  0  0
  7 50  1  0  0  0  0
  8 19  1  0  0  0  0
  8 51  1  0  0  0  0
  9 21  1  0  0  0  0
  9 52  1  0  0  0  0
 10 23  1  0  0  0  0
 10 55  1  0  0  0  0
 11 30  1  0  0  0  0
 11 61  1  0  0  0  0
 12 32  1  0  0  0  0
 12 62  1  0  0  0  0
 13 14  1  0  0  0  0
 13 15  1  0  0  0  0
 13 33  1  0  0  0  0
 14 17  1  0  0  0  0
 14 34  1  0  0  0  0
 15 20  1  0  0  0  0
 15 35  1  0  0  0  0
 16 18  1  0  0  0  0
 16 36  1  0  0  0  0
 17 23  1  0  0  0  0
 17 37  1  0  0  0  0
 18 19  1  0  0  0  0
 18 38  1  0  0  0  0
 19 21  1  0  0  0  0
 19 39  1  0  0  0  0
 20 40  1  0  0  0  0
 21 22  1  0  0  0  0
 21 41  1  0  0  0  0
 22 24  1  0  0  0  0
 22 42  1  0  0  0  0
 23 43  1  0  0  0  0
 23 44  1  0  0  0  0
 24 45  1  0  0  0  0
 24 46  1  0  0  0  0
 24 47  1  0  0  0  0
 25 26  1  0  0  0  0
 25 53  1  0  0  0  0
 25 54  1  0  0  0  0
 26 27  1  0  0  0  0
 26 56  1  0  0  0  0
 26 57  1  0  0  0  0
 27 28  2  0  0  0  0
 27 29  1  0  0  0  0
 28 30  1  0  0  0  0
 28 58  1  0  0  0  0
 29 31  2  0  0  0  0
 29 59  1  0  0  0  0
 30 32  2  0  0  0  0
 31 32  1  0  0  0  0
 31 60  1  0  0  0  0
M  END
> <PUBCHEM_COMPOUND_CID>
11754080

> <PUBCHEM_CONFORMER_RMSD>
1

> <PUBCHEM_CONFORMER_DIVERSEORDER>
1
185
213
209
84
91
261
435
377
407
190
237
56
96
140
35
251
20
324
176
152
28
262
367
238
163
359
216
45
194
253
51
162
104
414
177
44
110
382
306
313
186
132
193
389
254
334
283
47
331
428
366
226
244
115
356
40
159
298
258
55
142
76
402
48
231
89
135
111
64
112
318
370
218
181
293
309
149
353
207
248
99
385
266
77
320
229
49
21
363
279
196
287
2
315
211
129
133
98
371
404
210
72
107
372
241
128
411
119
386
180
340
294
342
381
121
280
393
285
403
81
100
67
87
38
208
326
205
339
150
75
97
312
139
171
329
74
311
124
374
272
384
214
192
282
417
423
25
27
220
13
358
344
90
383
11
155
22
166
418
43
348
286
23
148
174
436
341
224
4
134
93
332
278
228
102
426
268
347
269
39
247
410
246
19
430
297
391
68
151
289
338
219
265
62
65
416
249
138
288
200
7
257
284
88
203
388
54
31
187
143
316
420
305
302
101
235
114
26
69
319
401
413
328
66
292
3
368
127
351
178
120
170
327
323
160
165
355
330
63
375
191
201
41
6
156
85
29
333
50
36
182
33
429
52
8
195
299
335
304
352
233
116
362
227
60
202
9
217
42
146
369
434
365
364
296
263
317
349
437
147
425
161
415
206
260
387
80
321
164
255
82
252
378
59
232
10
17
179
300
223
30
357
197
5
336
276
79
18
105
399
421
189
354
117
103
94
275
431
57
379
395
73
230
137
406
12
83
167
380
433
405
234
58
158
242
144
53
396
422
136
350
113
240
14
125
307
204
239
303
424
34
394
290
345
346
46
141
157
273
32
427
225
169
256
360
390
301
221
408
215
37
199
212
222
398
71
145
295
198
70
259
308
343
337
245
361
153
78
409
432
106
250
325
243
291
173
264
277
392
122
126
109
16
183
61
130
118
397
175
123
412
154
314
310
131
271
92
400
15
236
24
184
376
419
86
281
95
267
270
108
322
274
172
188
168
373

> <PUBCHEM_MMFF94_PARTIAL_CHARGES>
42
1 -0.56
10 -0.68
11 -0.53
12 -0.53
13 0.28
14 0.28
15 0.28
16 0.56
17 0.28
18 0.28
19 0.28
2 -0.56
20 0.56
21 0.28
22 0.28
23 0.28
25 0.28
26 0.14
27 -0.14
28 -0.15
29 -0.15
3 -0.56
30 0.08
31 -0.15
32 0.08
4 -0.68
48 0.4
49 0.4
5 -0.56
50 0.4
51 0.4
52 0.4
55 0.4
58 0.15
59 0.15
6 -0.68
60 0.15
61 0.45
62 0.45
7 -0.68
8 -0.68
9 -0.68

> <PUBCHEM_EFFECTIVE_ROTOR_COUNT>
9.4

> <PUBCHEM_PHARMACOPHORE_FEATURES>
21
1 1 acceptor
1 10 acceptor
1 10 donor
1 11 donor
1 12 donor
1 2 acceptor
1 3 acceptor
1 4 acceptor
1 4 donor
1 5 acceptor
1 6 acceptor
1 6 donor
1 7 acceptor
1 7 donor
1 8 acceptor
1 8 donor
1 9 acceptor
1 9 donor
6 2 13 14 15 17 20 rings
6 27 28 29 30 31 32 rings
6 3 16 18 19 21 22 rings

> <PUBCHEM_HEAVY_ATOM_COUNT>
32

> <PUBCHEM_ATOM_DEF_STEREO_COUNT>
10

> <PUBCHEM_ATOM_UDEF_STEREO_COUNT>
0

> <PUBCHEM_BOND_DEF_STEREO_COUNT>
0

> <PUBCHEM_BOND_UDEF_STEREO_COUNT>
0

> <PUBCHEM_ISOTOPIC_ATOM_COUNT>
0

> <PUBCHEM_COMPONENT_COUNT>
1

> <PUBCHEM_CACTVS_TAUTO_COUNT>
18

> <PUBCHEM_CONFORMER_ID>
00B35A6000000001

> <PUBCHEM_MMFF94_ENERGY>
90.2002

> <PUBCHEM_FEATURE_SELFOVERLAP>
106.703

> <PUBCHEM_SHAPE_FINGERPRINT>
10591671 39 18413669132359942403
10670039 82 18201442428774821992
10763959 59 18190177889277178578
10906281 52 18338524045531261321
11991303 11 18129941294678610055
12342043 65 13769307707446096410
12422481 6 17603864460089651460
12633257 1 14851890321992440608
13257819 37 18272378610867162990
13782708 43 12031777081278552773
13911987 19 18272653458904177065
1454969 45 18340763836775057807
14790565 3 18411133684004903738
14840074 17 18113902675582452068
15001296 14 18194112147560282864
15082195 135 18270115708340919219
15163728 17 18341624693685399422
15183329 4 17988931076173752800
15575132 122 18409166640659801125
15961568 22 18114463366409546933
20567600 70 8790592715717519942
20771845 171 18339355262957565783
21344244 181 15626215853508700343
22122407 14 17967537848262050864
23559900 14 17698151860312752411
249057 3 18413673513870227574
27425 322 18041284374344973574
2838139 119 18333445434975751332
394071 54 13840277987458119990
4058900 60 18337957792157827627
4173938 77 17677630798814935540
439807 62 11599709706499267669
550186 72 18408881871939579397
613672 6 11602815787549055315

> <PUBCHEM_SHAPE_MULTIPOLES>
588.11
17.33
4.32
1.74
0.36
2
-0.07
-14.18
4.61
0.57
2.39
1.4
-0.04
-1.64

> <PUBCHEM_SHAPE_SELFOVERLAP>
1229.461

> <PUBCHEM_SHAPE_VOLUME>
327.8

> <PUBCHEM_COORDINATE_TYPE>
2
5
10

$$$$
