10713200
  -OEChem-09062012103D

 52 54  0     1  0  0  0  0  0999 V2000
    3.4368   -1.0065   -1.9829 O   0  0  0  0  0  0  0  0  0  0  0  0
    2.5806   -2.5908   -0.4451 O   0  0  0  0  0  0  0  0  0  0  0  0
   -2.8509    3.1432   -1.9774 O   0  0  0  0  0  0  0  0  0  0  0  0
   -0.6743    3.4869   -1.4429 O   0  0  0  0  0  0  0  0  0  0  0  0
   -0.3697    0.9618   -0.4536 N   0  3  0  0  0  0  0  0  0  0  0  0
    2.2332    1.8629    2.1385 C   0  0  1  0  0  0  0  0  0  0  0  0
    3.6403    1.3285    1.7923 C   0  0  0  0  0  0  0  0  0  0  0  0
    1.4327    1.2885    1.0095 C   0  0  0  0  0  0  0  0  0  0  0  0
    2.1184    0.2571    0.3683 C   0  0  0  0  0  0  0  0  0  0  0  0
    3.4462    0.0174    1.0121 C   0  0  0  0  0  0  0  0  0  0  0  0
    1.5432   -0.4296   -0.6841 C   0  0  0  0  0  0  0  0  0  0  0  0
    0.1679    1.6328    0.5781 C   0  0  0  0  0  0  0  0  0  0  0  0
    1.7416    1.3745    3.4955 C   0  0  0  0  0  0  0  0  0  0  0  0
    0.2704   -0.0399   -1.0827 C   0  0  0  0  0  0  0  0  0  0  0  0
   -1.7015    1.3417   -0.9170 C   0  0  1  0  0  0  0  0  0  0  0  0
    2.2441   -1.5437   -1.3759 C   0  0  0  0  0  0  0  0  0  0  0  0
   -2.6976    1.1309    0.2352 C   0  0  0  0  0  0  0  0  0  0  0  0
   -1.6562    2.7571   -1.4570 C   0  0  0  0  0  0  0  0  0  0  0  0
   -3.0772   -0.3178    0.4323 C   0  0  0  0  0  0  0  0  0  0  0  0
   -4.1682   -0.8321   -0.2495 C   0  0  0  0  0  0  0  0  0  0  0  0
   -2.3276   -1.1048    1.2915 C   0  0  0  0  0  0  0  0  0  0  0  0
    4.1999   -1.9824   -2.6805 C   0  0  0  0  0  0  0  0  0  0  0  0
    1.4394   -3.1484    0.1942 C   0  0  0  0  0  0  0  0  0  0  0  0
   -4.5191   -2.1698   -0.0671 C   0  0  0  0  0  0  0  0  0  0  0  0
   -2.6784   -2.4424    1.4737 C   0  0  0  0  0  0  0  0  0  0  0  0
   -3.7742   -2.9749    0.7945 C   0  0  0  0  0  0  0  0  0  0  0  0
    2.2303    2.9580    2.1061 H   0  0  0  0  0  0  0  0  0  0  0  0
    4.1409    2.0551    1.1361 H   0  0  0  0  0  0  0  0  0  0  0  0
    4.2828    1.1979    2.6693 H   0  0  0  0  0  0  0  0  0  0  0  0
    4.2605   -0.1266    0.2982 H   0  0  0  0  0  0  0  0  0  0  0  0
    3.3889   -0.8376    1.6937 H   0  0  0  0  0  0  0  0  0  0  0  0
   -0.3958    2.4366    1.0346 H   0  0  0  0  0  0  0  0  0  0  0  0
    0.7186    1.7170    3.6860 H   0  0  0  0  0  0  0  0  0  0  0  0
    2.3808    1.7594    4.2969 H   0  0  0  0  0  0  0  0  0  0  0  0
    1.7399    0.2805    3.5612 H   0  0  0  0  0  0  0  0  0  0  0  0
   -0.2495   -0.5233   -1.9017 H   0  0  0  0  0  0  0  0  0  0  0  0
   -1.9673    0.7048   -1.7710 H   0  0  0  0  0  0  0  0  0  0  0  0
    1.6241   -1.9711   -2.1745 H   0  0  0  0  0  0  0  0  0  0  0  0
   -3.6189    1.6911    0.0235 H   0  0  0  0  0  0  0  0  0  0  0  0
   -2.3568    1.5483    1.1894 H   0  0  0  0  0  0  0  0  0  0  0  0
   -4.7529   -0.2141   -0.9247 H   0  0  0  0  0  0  0  0  0  0  0  0
   -1.4752   -0.7012    1.8296 H   0  0  0  0  0  0  0  0  0  0  0  0
    5.0351   -1.4763   -3.1721 H   0  0  0  0  0  0  0  0  0  0  0  0
    4.6064   -2.7238   -1.9868 H   0  0  0  0  0  0  0  0  0  0  0  0
    3.5898   -2.4731   -3.4447 H   0  0  0  0  0  0  0  0  0  0  0  0
    0.6766   -3.4305   -0.5384 H   0  0  0  0  0  0  0  0  0  0  0  0
    1.0218   -2.4639    0.9377 H   0  0  0  0  0  0  0  0  0  0  0  0
    1.7584   -4.0526    0.7205 H   0  0  0  0  0  0  0  0  0  0  0  0
   -2.8180    4.0591   -2.3271 H   0  0  0  0  0  0  0  0  0  0  0  0
   -5.3718   -2.5847   -0.5966 H   0  0  0  0  0  0  0  0  0  0  0  0
   -2.0981   -3.0693    2.1445 H   0  0  0  0  0  0  0  0  0  0  0  0
   -4.0470   -4.0166    0.9362 H   0  0  0  0  0  0  0  0  0  0  0  0
  1 16  1  0  0  0  0
  1 22  1  0  0  0  0
  2 16  1  0  0  0  0
  2 23  1  0  0  0  0
  3 18  1  0  0  0  0
  3 49  1  0  0  0  0
  4 18  2  0  0  0  0
  5 12  1  0  0  0  0
  5 14  2  0  0  0  0
  5 15  1  0  0  0  0
  6  7  1  0  0  0  0
  6  8  1  0  0  0  0
  6 13  1  0  0  0  0
  6 27  1  0  0  0  0
  7 10  1  0  0  0  0
  7 28  1  0  0  0  0
  7 29  1  0  0  0  0
  8  9  1  0  0  0  0
  8 12  2  0  0  0  0
  9 10  1  0  0  0  0
  9 11  2  0  0  0  0
 10 30  1  0  0  0  0
 10 31  1  0  0  0  0
 11 14  1  0  0  0  0
 11 16  1  0  0  0  0
 12 32  1  0  0  0  0
 13 33  1  0  0  0  0
 13 34  1  0  0  0  0
 13 35  1  0  0  0  0
 14 36  1  0  0  0  0
 15 17  1  0  0  0  0
 15 18  1  0  0  0  0
 15 37  1  0  0  0  0
 16 38  1  0  0  0  0
 17 19  1  0  0  0  0
 17 39  1  0  0  0  0
 17 40  1  0  0  0  0
 19 20  2  0  0  0  0
 19 21  1  0  0  0  0
 20 24  1  0  0  0  0
 20 41  1  0  0  0  0
 21 25  2  0  0  0  0
 21 42  1  0  0  0  0
 22 43  1  0  0  0  0
 22 44  1  0  0  0  0
 22 45  1  0  0  0  0
 23 46  1  0  0  0  0
 23 47  1  0  0  0  0
 23 48  1  0  0  0  0
 24 26  2  0  0  0  0
 24 50  1  0  0  0  0
 25 26  1  0  0  0  0
 25 51  1  0  0  0  0
 26 52  1  0  0  0  0
M  CHG  1   5   1
M  END
> <PUBCHEM_COMPOUND_CID>
10713200

> <PUBCHEM_CONFORMER_RMSD>
0.8

> <PUBCHEM_CONFORMER_DIVERSEORDER>
1
96
70
135
64
141
16
140
115
129
71
75
82
8
138
122
15
137
65
41
143
66
86
83
142
80
103
3
42
23
53
139
26
101
98
77
72
49
39
12
30
45
63
50
54
47
48
25
117
20
55
116
95
69
11
76
121
24
128
43
28
40
110
13
91
119
27
22
111
10
19
134
34
51
5
78
2
74
114
92
36
90
118
32
7
87
123
93
9
68
38
33
58
133
60
89
113
46
31
100
112
108
29
102
107
136
84
132
127
104
85
56
62
131
17
94
130
124
18
79
105
35
106
120
52
57
67
126
73
14
109
4
44
99
125
21
88
6
61
81
97
37
59

> <PUBCHEM_MMFF94_PARTIAL_CHARGES>
32
1 -0.56
10 0.14
11 -0.14
12 0.21
14 0.21
15 0.55
16 0.7
17 0.14
18 0.66
19 -0.14
2 -0.56
20 -0.15
21 -0.15
22 0.28
23 0.28
24 -0.15
25 -0.15
26 -0.15
3 -0.65
32 0.15
36 0.15
4 -0.57
41 0.15
42 0.15
49 0.5
5 -0.21
50 0.15
51 0.15
52 0.15
6 0.14
8 -0.14
9 -0.14

> <PUBCHEM_EFFECTIVE_ROTOR_COUNT>
7.6

> <PUBCHEM_PHARMACOPHORE_FEATURES>
8
1 1 acceptor
1 2 acceptor
1 3 acceptor
1 4 acceptor
3 3 4 18 anion
5 6 7 8 9 10 rings
6 19 20 21 24 25 26 rings
6 5 8 9 11 12 14 rings

> <PUBCHEM_HEAVY_ATOM_COUNT>
26

> <PUBCHEM_ATOM_DEF_STEREO_COUNT>
0

> <PUBCHEM_ATOM_UDEF_STEREO_COUNT>
2

> <PUBCHEM_BOND_DEF_STEREO_COUNT>
0

> <PUBCHEM_BOND_UDEF_STEREO_COUNT>
0

> <PUBCHEM_ISOTOPIC_ATOM_COUNT>
0

> <PUBCHEM_COMPONENT_COUNT>
1

> <PUBCHEM_CACTVS_TAUTO_COUNT>
1

> <PUBCHEM_CONFORMER_ID>
00A3787000000001

> <PUBCHEM_MMFF94_ENERGY>
78.5225

> <PUBCHEM_FEATURE_SELFOVERLAP>
40.78

> <PUBCHEM_SHAPE_FINGERPRINT>
10165383 225 17699852023169517856
10366900 7 18342729736983119833
11578080 2 18343027661695688841
11582403 64 16611868563925010145
11640471 11 14907897240365458273
12160290 23 17677045716910653501
12293681 25 18265873844548192007
12363563 72 17823692160983390763
12553582 1 18041574619301504539
12633257 1 17129332816906362243
12714826 92 18195263134265223111
12788726 201 17676213446579414861
14022347 108 17894919546559582329
14223421 5 18342734122186771171
16752209 62 17676479498433917557
17974551 9 17631467699895182881
17980427 26 16895064104492181333
1813 80 18114752645884652761
18219364 16 17773570867296525168
19049666 15 18196078959050484641
20600515 1 17459177654974398463
20603629 256 17346606299942503138
20693207 138 18342181016124345245
22182313 1 18201149984472274940
23419403 2 18131361790944896244
23557571 272 18408595959670827717
23559900 14 18409169904597608469
25222932 49 16884136509616665531
3797600 57 15050330253403521283
484985 159 17338187133392987526
621550 5 18128562434092691412
7288768 16 15692905812009982674
81228 2 18260832583861686025
9658208 31 18120366567599526269

> <PUBCHEM_SHAPE_MULTIPOLES>
506.61
7.66
3.92
2.55
3.46
0.11
0.46
4.71
0.34
0.66
-1.36
-2.18
-1.01
4.51

> <PUBCHEM_SHAPE_SELFOVERLAP>
1082.314

> <PUBCHEM_SHAPE_VOLUME>
283.5

> <PUBCHEM_COORDINATE_TYPE>
2
5
10

$$$$
