102066925
  -OEChem-09062012043D

 54 57  0     1  0  0  0  0  0999 V2000
   -2.8494   -0.4957    1.7806 O   0  0  0  0  0  0  0  0  0  0  0  0
   -2.0302   -3.0520    1.0252 O   0  0  0  0  0  0  0  0  0  0  0  0
   -0.8676   -3.3022   -1.4792 O   0  0  0  0  0  0  0  0  0  0  0  0
    3.9671   -0.8463   -1.2143 O   0  0  0  0  0  0  0  0  0  0  0  0
    4.2742    0.4139    1.2412 O   0  0  0  0  0  0  0  0  0  0  0  0
   -1.7931    2.9498   -0.4747 N   0  0  2  0  0  0  0  0  0  0  0  0
   -0.8487    0.3137   -1.3167 C   0  0  1  0  0  0  0  0  0  0  0  0
   -2.0008    0.5084   -0.2859 C   0  0  2  0  0  0  0  0  0  0  0  0
   -1.7296    1.8228    0.4840 C   0  0  1  0  0  0  0  0  0  0  0  0
   -0.8985    1.5122   -2.2977 C   0  0  0  0  0  0  0  0  0  0  0  0
    0.5306    0.3248   -0.6269 C   0  0  0  0  0  0  0  0  0  0  0  0
   -1.1426   -0.9964   -2.0798 C   0  0  0  0  0  0  0  0  0  0  0  0
   -0.4279    1.7009    1.3042 C   0  0  0  0  0  0  0  0  0  0  0  0
   -0.8348    2.8679   -1.5795 C   0  0  0  0  0  0  0  0  0  0  0  0
    0.7076    0.9952    0.6030 C   0  0  0  0  0  0  0  0  0  0  0  0
   -2.2130   -0.7255    0.5743 C   0  0  0  0  0  0  0  0  0  0  0  0
   -1.2292   -2.1783   -1.1358 C   0  0  0  0  0  0  0  0  0  0  0  0
   -1.8364   -1.9606    0.2067 C   0  0  0  0  0  0  0  0  0  0  0  0
    1.6555   -0.2726   -1.2252 C   0  0  0  0  0  0  0  0  0  0  0  0
   -1.7521    4.2606    0.1658 C   0  0  0  0  0  0  0  0  0  0  0  0
    1.9697    1.0053    1.2214 C   0  0  0  0  0  0  0  0  0  0  0  0
    2.9058   -0.2480   -0.6042 C   0  0  0  0  0  0  0  0  0  0  0  0
    3.0618    0.3849    0.6222 C   0  0  0  0  0  0  0  0  0  0  0  0
   -4.2502   -0.5970    1.6302 C   0  0  0  0  0  0  0  0  0  0  0  0
   -0.9136   -3.2514    1.8709 C   0  0  0  0  0  0  0  0  0  0  0  0
    4.2004   -2.2196   -0.9077 C   0  0  0  0  0  0  0  0  0  0  0  0
    4.3450    1.0854    2.4979 C   0  0  0  0  0  0  0  0  0  0  0  0
   -2.9462    0.6393   -0.8369 H   0  0  0  0  0  0  0  0  0  0  0  0
   -2.5517    1.9826    1.1945 H   0  0  0  0  0  0  0  0  0  0  0  0
   -1.8318    1.4714   -2.8763 H   0  0  0  0  0  0  0  0  0  0  0  0
   -0.0812    1.4539   -3.0280 H   0  0  0  0  0  0  0  0  0  0  0  0
   -0.3877   -1.2071   -2.8436 H   0  0  0  0  0  0  0  0  0  0  0  0
   -2.1055   -0.9338   -2.6038 H   0  0  0  0  0  0  0  0  0  0  0  0
   -0.6472    1.1298    2.2165 H   0  0  0  0  0  0  0  0  0  0  0  0
   -0.0920    2.6869    1.6435 H   0  0  0  0  0  0  0  0  0  0  0  0
    0.1868    3.0646   -1.2324 H   0  0  0  0  0  0  0  0  0  0  0  0
   -1.0615    3.6469   -2.3185 H   0  0  0  0  0  0  0  0  0  0  0  0
    1.5774   -0.7587   -2.1935 H   0  0  0  0  0  0  0  0  0  0  0  0
   -0.7671    4.5001    0.5791 H   0  0  0  0  0  0  0  0  0  0  0  0
   -2.0101    5.0428   -0.5571 H   0  0  0  0  0  0  0  0  0  0  0  0
   -2.4924    4.3266    0.9705 H   0  0  0  0  0  0  0  0  0  0  0  0
    2.0314    1.5236    2.1733 H   0  0  0  0  0  0  0  0  0  0  0  0
   -4.7108   -0.4175    2.6064 H   0  0  0  0  0  0  0  0  0  0  0  0
   -4.5489   -1.5976    1.2984 H   0  0  0  0  0  0  0  0  0  0  0  0
   -4.6341    0.1585    0.9360 H   0  0  0  0  0  0  0  0  0  0  0  0
   -1.1029   -4.1388    2.4822 H   0  0  0  0  0  0  0  0  0  0  0  0
   -0.7680   -2.4014    2.5467 H   0  0  0  0  0  0  0  0  0  0  0  0
   -0.0008   -3.4290    1.2913 H   0  0  0  0  0  0  0  0  0  0  0  0
    4.3983   -2.3477    0.1612 H   0  0  0  0  0  0  0  0  0  0  0  0
    5.0786   -2.5515   -1.4682 H   0  0  0  0  0  0  0  0  0  0  0  0
    3.3426   -2.8303   -1.2069 H   0  0  0  0  0  0  0  0  0  0  0  0
    5.3795    1.0047    2.8479 H   0  0  0  0  0  0  0  0  0  0  0  0
    3.7163    0.5992    3.2518 H   0  0  0  0  0  0  0  0  0  0  0  0
    4.1266    2.1540    2.3974 H   0  0  0  0  0  0  0  0  0  0  0  0
  1 16  1  0  0  0  0
  1 24  1  0  0  0  0
  2 18  1  0  0  0  0
  2 25  1  0  0  0  0
  3 17  2  0  0  0  0
  4 22  1  0  0  0  0
  4 26  1  0  0  0  0
  5 23  1  0  0  0  0
  5 27  1  0  0  0  0
  6  9  1  0  0  0  0
  6 14  1  0  0  0  0
  6 20  1  0  0  0  0
  7  8  1  0  0  0  0
  7 10  1  0  0  0  0
  7 11  1  0  0  0  0
  7 12  1  0  0  0  0
  8  9  1  0  0  0  0
  8 16  1  0  0  0  0
  8 28  1  0  0  0  0
  9 13  1  0  0  0  0
  9 29  1  0  0  0  0
 10 14  1  0  0  0  0
 10 30  1  0  0  0  0
 10 31  1  0  0  0  0
 11 15  1  0  0  0  0
 11 19  2  0  0  0  0
 12 17  1  0  0  0  0
 12 32  1  0  0  0  0
 12 33  1  0  0  0  0
 13 15  1  0  0  0  0
 13 34  1  0  0  0  0
 13 35  1  0  0  0  0
 14 36  1  0  0  0  0
 14 37  1  0  0  0  0
 15 21  2  0  0  0  0
 16 18  2  0  0  0  0
 17 18  1  0  0  0  0
 19 22  1  0  0  0  0
 19 38  1  0  0  0  0
 20 39  1  0  0  0  0
 20 40  1  0  0  0  0
 20 41  1  0  0  0  0
 21 23  1  0  0  0  0
 21 42  1  0  0  0  0
 22 23  2  0  0  0  0
 24 43  1  0  0  0  0
 24 44  1  0  0  0  0
 24 45  1  0  0  0  0
 25 46  1  0  0  0  0
 25 47  1  0  0  0  0
 25 48  1  0  0  0  0
 26 49  1  0  0  0  0
 26 50  1  0  0  0  0
 26 51  1  0  0  0  0
 27 52  1  0  0  0  0
 27 53  1  0  0  0  0
 27 54  1  0  0  0  0
M  END
> <PUBCHEM_COMPOUND_CID>
102066925

> <PUBCHEM_CONFORMER_RMSD>
0.8

> <PUBCHEM_CONFORMER_DIVERSEORDER>
1
3
2

> <PUBCHEM_MMFF94_PARTIAL_CHARGES>
28
1 -0.36
11 -0.14
12 0.06
13 0.14
14 0.27
15 -0.14
16 -0.06
17 0.49
18 0.09
19 -0.15
2 -0.36
20 0.27
21 -0.15
22 0.08
23 0.08
24 0.28
25 0.28
26 0.28
27 0.28
3 -0.57
38 0.15
4 -0.36
42 0.15
5 -0.36
6 -0.81
7 0.14
8 0.14
9 0.27

> <PUBCHEM_EFFECTIVE_ROTOR_COUNT>
5

> <PUBCHEM_PHARMACOPHORE_FEATURES>
10
1 1 acceptor
1 2 acceptor
1 3 acceptor
1 4 acceptor
1 5 acceptor
1 6 cation
6 11 15 19 21 22 23 rings
6 6 7 8 9 10 14 rings
6 7 8 12 16 17 18 rings
6 7 8 9 11 13 15 rings

> <PUBCHEM_HEAVY_ATOM_COUNT>
27

> <PUBCHEM_ATOM_DEF_STEREO_COUNT>
3

> <PUBCHEM_ATOM_UDEF_STEREO_COUNT>
0

> <PUBCHEM_BOND_DEF_STEREO_COUNT>
0

> <PUBCHEM_BOND_UDEF_STEREO_COUNT>
0

> <PUBCHEM_ISOTOPIC_ATOM_COUNT>
0

> <PUBCHEM_COMPONENT_COUNT>
1

> <PUBCHEM_CACTVS_TAUTO_COUNT>
9

> <PUBCHEM_CONFORMER_ID>
06156AED00000001

> <PUBCHEM_MMFF94_ENERGY>
107.494

> <PUBCHEM_FEATURE_SELFOVERLAP>
52.396

> <PUBCHEM_SHAPE_FINGERPRINT>
10165383 225 17687202888841789324
10764073 3 17627821654823121267
107951 10 17975148547316189566
10863032 1 17901678067930152589
10930396 42 17973968973013489729
12156800 1 15438551075714969722
12160290 23 18261379010490260140
12553582 1 18114749355375584826
12633257 1 18270394018216929168
12714826 92 17822007644370666255
12788726 201 18041292035732854960
13140716 1 18192711365503743680
133893 2 17103956384678960557
13681431 1 17757547825830569837
14223421 5 18200584904310098008
14863182 85 15155896791216302275
15295992 7 17915456091283094088
16945 1 18410304613656480805
1813 80 17969225710015533471
20600515 1 18042955644249408821
21330990 113 18125466157904062431
21421861 104 17331416770565434283
21731516 1 17387694048760891115
22956985 138 16382528378970662448
23419403 2 17263601736584373245
23559900 14 18412271618900337084
3380486 145 18127395968061768463
35225 105 18336254635623720489
394222 165 17267484116358584689
4340502 62 17618243710408332161
469060 322 17555143098829824002
5265222 85 18267608848602331566
5845 1 18193543691479581885
81228 2 18337099142116195356
9981440 41 17270553055533217376

> <PUBCHEM_SHAPE_MULTIPOLES>
521.32
6.13
4.01
2.26
7.35
0.36
0.1
-1.05
2.82
-3.03
0.01
0.22
-0.24
1.8

> <PUBCHEM_SHAPE_SELFOVERLAP>
1130.151

> <PUBCHEM_SHAPE_VOLUME>
284.3

> <PUBCHEM_COORDINATE_TYPE>
2
5
10

$$$$
