14132344
  -OEChem-09052013543D

 41 42  0     1  0  0  0  0  0999 V2000
    2.1248   -0.8132    0.2309 O   0  0  0  0  0  0  0  0  0  0  0  0
    5.5986    0.3471    0.2163 O   0  0  0  0  0  0  0  0  0  0  0  0
    4.0789    2.7881    0.5127 O   0  0  0  0  0  0  0  0  0  0  0  0
    0.1044    0.2388   -0.2740 O   0  0  0  0  0  0  0  0  0  0  0  0
    1.5231    2.5949   -0.9404 O   0  0  0  0  0  0  0  0  0  0  0  0
    3.3824   -3.2574    0.2554 O   0  0  0  0  0  0  0  0  0  0  0  0
   -0.0531   -1.9145   -1.0724 O   0  0  0  0  0  0  0  0  0  0  0  0
   -4.5428    1.8188   -0.1783 O   0  0  0  0  0  0  0  0  0  0  0  0
   -6.0267   -0.4268    0.5133 O   0  0  0  0  0  0  0  0  0  0  0  0
    4.2055    0.3980    0.5126 C   0  0  1  0  0  0  0  0  0  0  0  0
    3.5903    1.6259   -0.1590 C   0  0  1  0  0  0  0  0  0  0  0  0
    3.5354   -0.8854    0.0162 C   0  0  1  0  0  0  0  0  0  0  0  0
    2.0641    1.5948   -0.0776 C   0  0  2  0  0  0  0  0  0  0  0  0
    1.5116    0.2374   -0.5125 C   0  0  1  0  0  0  0  0  0  0  0  0
    4.0512   -2.1148    0.7573 C   0  0  0  0  0  0  0  0  0  0  0  0
   -0.5532   -0.9049   -0.6011 C   0  0  0  0  0  0  0  0  0  0  0  0
   -2.0028   -0.7748   -0.3077 C   0  0  0  0  0  0  0  0  0  0  0  0
   -2.5898    0.4716   -0.3840 C   0  0  0  0  0  0  0  0  0  0  0  0
   -2.7181   -1.9045    0.0339 C   0  0  0  0  0  0  0  0  0  0  0  0
   -3.9515    0.5938   -0.1067 C   0  0  0  0  0  0  0  0  0  0  0  0
   -4.0796   -1.7824    0.3112 C   0  0  0  0  0  0  0  0  0  0  0  0
   -4.6962   -0.5332    0.2408 C   0  0  0  0  0  0  0  0  0  0  0  0
   -4.5565    2.6027    1.0131 C   0  0  0  0  0  0  0  0  0  0  0  0
    4.1049    0.4893    1.6011 H   0  0  0  0  0  0  0  0  0  0  0  0
    3.9194    1.7099   -1.2021 H   0  0  0  0  0  0  0  0  0  0  0  0
    3.7167   -1.0354   -1.0570 H   0  0  0  0  0  0  0  0  0  0  0  0
    1.7326    1.8398    0.9384 H   0  0  0  0  0  0  0  0  0  0  0  0
    1.6726    0.0820   -1.5883 H   0  0  0  0  0  0  0  0  0  0  0  0
    3.8446   -2.0516    1.8309 H   0  0  0  0  0  0  0  0  0  0  0  0
    5.1263   -2.2537    0.6126 H   0  0  0  0  0  0  0  0  0  0  0  0
    5.6977    0.2587   -0.7470 H   0  0  0  0  0  0  0  0  0  0  0  0
    5.0496    2.7712    0.4549 H   0  0  0  0  0  0  0  0  0  0  0  0
    1.8071    2.3954   -1.8488 H   0  0  0  0  0  0  0  0  0  0  0  0
    2.4283   -3.1208    0.3852 H   0  0  0  0  0  0  0  0  0  0  0  0
   -2.0292    1.3583   -0.6665 H   0  0  0  0  0  0  0  0  0  0  0  0
   -2.2484   -2.8816    0.0956 H   0  0  0  0  0  0  0  0  0  0  0  0
   -4.6541   -2.6639    0.5822 H   0  0  0  0  0  0  0  0  0  0  0  0
   -6.2969    0.4979    0.3786 H   0  0  0  0  0  0  0  0  0  0  0  0
   -5.0945    3.5318    0.8057 H   0  0  0  0  0  0  0  0  0  0  0  0
   -3.5348    2.8505    1.3181 H   0  0  0  0  0  0  0  0  0  0  0  0
   -5.0710    2.0733    1.8214 H   0  0  0  0  0  0  0  0  0  0  0  0
  1 12  1  0  0  0  0
  1 14  1  0  0  0  0
  2 10  1  0  0  0  0
  2 31  1  0  0  0  0
  3 11  1  0  0  0  0
  3 32  1  0  0  0  0
  4 14  1  0  0  0  0
  4 16  1  0  0  0  0
  5 13  1  0  0  0  0
  5 33  1  0  0  0  0
  6 15  1  0  0  0  0
  6 34  1  0  0  0  0
  7 16  2  0  0  0  0
  8 20  1  0  0  0  0
  8 23  1  0  0  0  0
  9 22  1  0  0  0  0
  9 38  1  0  0  0  0
 10 11  1  0  0  0  0
 10 12  1  0  0  0  0
 10 24  1  0  0  0  0
 11 13  1  0  0  0  0
 11 25  1  0  0  0  0
 12 15  1  0  0  0  0
 12 26  1  0  0  0  0
 13 14  1  0  0  0  0
 13 27  1  0  0  0  0
 14 28  1  0  0  0  0
 15 29  1  0  0  0  0
 15 30  1  0  0  0  0
 16 17  1  0  0  0  0
 17 18  2  0  0  0  0
 17 19  1  0  0  0  0
 18 20  1  0  0  0  0
 18 35  1  0  0  0  0
 19 21  2  0  0  0  0
 19 36  1  0  0  0  0
 20 22  2  0  0  0  0
 21 22  1  0  0  0  0
 21 37  1  0  0  0  0
 23 39  1  0  0  0  0
 23 40  1  0  0  0  0
 23 41  1  0  0  0  0
M  END
> <PUBCHEM_COMPOUND_CID>
14132344

> <PUBCHEM_CONFORMER_RMSD>
0.8

> <PUBCHEM_CONFORMER_DIVERSEORDER>
1
83
165
158
156
142
161
82
117
145
102
119
76
140
20
104
114
47
30
155
64
75
123
147
89
88
61
143
34
55
105
98
125
14
22
171
81
101
139
144
106
133
160
150
18
115
78
46
32
168
97
45
129
107
19
100
84
62
13
33
90
167
48
141
170
108
131
2
91
159
151
93
15
54
157
121
37
164
152
154
51
103
72
109
21
124
23
80
132
5
58
162
28
130
3
149
112
122
38
9
166
71
73
68
126
53
96
134
50
94
4
87
110
146
42
40
77
113
86
7
116
36
85
135
39
79
128
111
99
173
120
6
27
153
10
163
127
65
66
29
118
31
56
60
67
59
138
17
44
49
57
70
43
74
16
169
95
35
41
8
137
69
92
52
12
172
136
63
11
26
148
24
25

> <PUBCHEM_MMFF94_PARTIAL_CHARGES>
31
1 -0.56
10 0.28
11 0.28
12 0.28
13 0.28
14 0.56
15 0.28
16 0.63
17 0.09
18 -0.15
19 -0.15
2 -0.68
20 0.08
21 -0.15
22 0.08
23 0.28
3 -0.68
31 0.4
32 0.4
33 0.4
34 0.4
35 0.15
36 0.15
37 0.15
38 0.45
4 -0.43
5 -0.68
6 -0.68
7 -0.57
8 -0.36
9 -0.53

> <PUBCHEM_EFFECTIVE_ROTOR_COUNT>
6.2

> <PUBCHEM_PHARMACOPHORE_FEATURES>
14
1 1 acceptor
1 2 acceptor
1 2 donor
1 3 acceptor
1 3 donor
1 5 acceptor
1 5 donor
1 6 acceptor
1 6 donor
1 7 acceptor
1 8 acceptor
1 9 donor
6 1 10 11 12 13 14 rings
6 17 18 19 20 21 22 rings

> <PUBCHEM_HEAVY_ATOM_COUNT>
23

> <PUBCHEM_ATOM_DEF_STEREO_COUNT>
5

> <PUBCHEM_ATOM_UDEF_STEREO_COUNT>
0

> <PUBCHEM_BOND_DEF_STEREO_COUNT>
0

> <PUBCHEM_BOND_UDEF_STEREO_COUNT>
0

> <PUBCHEM_ISOTOPIC_ATOM_COUNT>
0

> <PUBCHEM_COMPONENT_COUNT>
1

> <PUBCHEM_CACTVS_TAUTO_COUNT>
4

> <PUBCHEM_CONFORMER_ID>
00D7A47800000001

> <PUBCHEM_MMFF94_ENERGY>
74.5405

> <PUBCHEM_FEATURE_SELFOVERLAP>
71.07

> <PUBCHEM_SHAPE_FINGERPRINT>
10906281 52 18041292036608333848
11186622 174 18262790762504513975
11370993 144 18334575690316691543
11405975 8 18410012104882413091
12107183 9 18050567339857481395
12403260 363 18413103962214163447
12507557 5 18407476670077096373
12507560 40 18335419080027849407
12633257 1 18263078817022955795
12670546 56 18334852831708505507
12892183 10 18336548329951348935
13073987 5 18410575059199340987
13140716 1 18410576150126289181
13167823 11 18410571807761742363
13533116 47 18335421274930737115
13785724 45 17838623249637593422
14178342 30 17908402990774100738
14341114 176 18408328795725120107
14420673 8 18119250562537977106
14790565 3 18046915050568532676
14866123 147 17186437945933179114
15042514 8 17472409960125621146
15196674 1 18410855443344113397
15256400 18 18410293575537860429
15442244 35 18409729530161855421
15475509 84 18129374909268030856
1601671 61 18410293601755940308
17349148 13 18060419088723006015
17492 89 18409168839683881731
17818456 19 18200878353091381105
17844677 252 18412269419439335499
1813 80 16660364761971691486
20715895 44 18054510206172963585
20739085 24 18114457963968455292
21033648 29 17774989194198457816
21065198 48 18409729569064565323
21065198 57 18409448085487539427
21065199 12 18335139829817973643
21267235 1 18409736166440274150
21315764 268 18409162217107763077
21421861 104 17969491625074921482
21859007 373 17533206476409898317
23402539 116 18411131477182861871
23559900 14 18335980956023311738
239999 70 18343590651031374598
3421961 26 18336541625998283202
3545911 37 18408886269247014413
4073 2 18040722514674656594
4214541 1 18409166614995609213
5104073 3 18408324363260725643
543358 83 18410294675402779674
7097593 13 18336260231961131110
7495541 125 12540705829161017782
77779 3 18408885156913879163
8272917 22 18410294726942770478
9709674 26 18260833751586726251

> <PUBCHEM_SHAPE_MULTIPOLES>
420.51
12.69
3.03
0.82
3.92
0.34
0
1.66
-3.15
-1.31
-0.34
0.06
0.07
-0.72

> <PUBCHEM_SHAPE_SELFOVERLAP>
885.041

> <PUBCHEM_SHAPE_VOLUME>
234.5

> <PUBCHEM_COORDINATE_TYPE>
2
5
10

$$$$
