164648
  -OEChem-09052013573D

 43 44  0     1  0  0  0  0  0999 V2000
    1.3545   -0.5563    0.1920 O   0  0  0  0  0  0  0  0  0  0  0  0
    0.3112    1.5295    0.1230 O   0  0  0  0  0  0  0  0  0  0  0  0
    5.0830    1.1592    0.0444 O   0  0  0  0  0  0  0  0  0  0  0  0
    4.7680   -1.6499   -0.5600 O   0  0  0  0  0  0  0  0  0  0  0  0
    2.7148    2.6755   -0.8349 O   0  0  0  0  0  0  0  0  0  0  0  0
    0.8869   -3.2549   -0.0432 O   0  0  0  0  0  0  0  0  0  0  0  0
   -1.2954    0.9725    2.3219 O   0  0  0  0  0  0  0  0  0  0  0  0
   -5.3446   -0.6455   -1.7570 O   0  0  0  0  0  0  0  0  0  0  0  0
    3.8917    0.5948   -0.5056 C   0  0  1  0  0  0  0  0  0  0  0  0
    3.7567   -0.8330    0.0241 C   0  0  1  0  0  0  0  0  0  0  0  0
    2.6903    1.4501   -0.1033 C   0  0  2  0  0  0  0  0  0  0  0  0
    2.3808   -1.4106   -0.3159 C   0  0  1  0  0  0  0  0  0  0  0  0
    1.3729    0.7369   -0.4078 C   0  0  1  0  0  0  0  0  0  0  0  0
    2.1789   -2.7902    0.3028 C   0  0  0  0  0  0  0  0  0  0  0  0
   -0.9574    1.0466   -0.0472 C   0  0  0  0  0  0  0  0  0  0  0  0
   -1.7584    0.7694    1.0569 C   0  0  0  0  0  0  0  0  0  0  0  0
   -1.4378    0.8366   -1.3368 C   0  0  0  0  0  0  0  0  0  0  0  0
   -3.0504    0.2780    0.8700 C   0  0  0  0  0  0  0  0  0  0  0  0
   -2.7297    0.3452   -1.5237 C   0  0  0  0  0  0  0  0  0  0  0  0
   -3.5360    0.0658   -0.4203 C   0  0  0  0  0  0  0  0  0  0  0  0
   -4.8830   -0.4464   -0.6156 C   0  0  0  0  0  0  0  0  0  0  0  0
   -0.6268   -0.1192    2.9505 C   0  0  0  0  0  0  0  0  0  0  0  0
   -5.7701   -0.7541    0.5859 C   0  0  0  0  0  0  0  0  0  0  0  0
    4.0211    0.5994   -1.5949 H   0  0  0  0  0  0  0  0  0  0  0  0
    3.9186   -0.8359    1.1090 H   0  0  0  0  0  0  0  0  0  0  0  0
    2.7504    1.7139    0.9594 H   0  0  0  0  0  0  0  0  0  0  0  0
    2.2497   -1.5042   -1.4026 H   0  0  0  0  0  0  0  0  0  0  0  0
    1.2495    0.6450   -1.4948 H   0  0  0  0  0  0  0  0  0  0  0  0
    2.2380   -2.7516    1.3957 H   0  0  0  0  0  0  0  0  0  0  0  0
    2.9145   -3.5110   -0.0652 H   0  0  0  0  0  0  0  0  0  0  0  0
    5.8242    0.5865   -0.2174 H   0  0  0  0  0  0  0  0  0  0  0  0
    4.6280   -1.6592   -1.5223 H   0  0  0  0  0  0  0  0  0  0  0  0
    2.6638    2.4624   -1.7824 H   0  0  0  0  0  0  0  0  0  0  0  0
    0.2426   -2.6044    0.2850 H   0  0  0  0  0  0  0  0  0  0  0  0
   -0.8331    1.0664   -2.2092 H   0  0  0  0  0  0  0  0  0  0  0  0
   -3.6503    0.0724    1.7517 H   0  0  0  0  0  0  0  0  0  0  0  0
   -3.0870    0.1923   -2.5385 H   0  0  0  0  0  0  0  0  0  0  0  0
    0.4262   -0.1270    2.6571 H   0  0  0  0  0  0  0  0  0  0  0  0
   -1.0936   -1.0781    2.7015 H   0  0  0  0  0  0  0  0  0  0  0  0
   -0.6826    0.0245    4.0332 H   0  0  0  0  0  0  0  0  0  0  0  0
   -5.9519    0.1552    1.1646 H   0  0  0  0  0  0  0  0  0  0  0  0
   -5.3141   -1.5323    1.2034 H   0  0  0  0  0  0  0  0  0  0  0  0
   -6.7361   -1.1274    0.2311 H   0  0  0  0  0  0  0  0  0  0  0  0
  1 12  1  0  0  0  0
  1 13  1  0  0  0  0
  2 13  1  0  0  0  0
  2 15  1  0  0  0  0
  3  9  1  0  0  0  0
  3 31  1  0  0  0  0
  4 10  1  0  0  0  0
  4 32  1  0  0  0  0
  5 11  1  0  0  0  0
  5 33  1  0  0  0  0
  6 14  1  0  0  0  0
  6 34  1  0  0  0  0
  7 16  1  0  0  0  0
  7 22  1  0  0  0  0
  8 21  2  0  0  0  0
  9 10  1  0  0  0  0
  9 11  1  0  0  0  0
  9 24  1  0  0  0  0
 10 12  1  0  0  0  0
 10 25  1  0  0  0  0
 11 13  1  0  0  0  0
 11 26  1  0  0  0  0
 12 14  1  0  0  0  0
 12 27  1  0  0  0  0
 13 28  1  0  0  0  0
 14 29  1  0  0  0  0
 14 30  1  0  0  0  0
 15 16  2  0  0  0  0
 15 17  1  0  0  0  0
 16 18  1  0  0  0  0
 17 19  2  0  0  0  0
 17 35  1  0  0  0  0
 18 20  2  0  0  0  0
 18 36  1  0  0  0  0
 19 20  1  0  0  0  0
 19 37  1  0  0  0  0
 20 21  1  0  0  0  0
 21 23  1  0  0  0  0
 22 38  1  0  0  0  0
 22 39  1  0  0  0  0
 22 40  1  0  0  0  0
 23 41  1  0  0  0  0
 23 42  1  0  0  0  0
 23 43  1  0  0  0  0
M  END
> <PUBCHEM_COMPOUND_CID>
164648

> <PUBCHEM_CONFORMER_RMSD>
0.8

> <PUBCHEM_CONFORMER_DIVERSEORDER>
1
14
171
105
202
71
43
146
72
172
160
188
128
10
170
138
214
217
139
187
205
74
152
122
181
46
164
51
208
65
53
38
98
195
201
168
194
89
145
131
76
21
204
96
55
151
33
31
17
207
30
156
107
111
143
60
109
37
210
19
178
120
78
174
49
83
154
29
182
190
211
64
206
88
162
197
57
163
13
212
123
22
73
213
101
147
200
180
62
87
157
68
173
185
165
116
41
175
134
12
97
179
209
193
47
144
25
79
113
215
82
167
199
56
127
104
155
77
42
112
52
176
148
132
117
102
150
69
8
92
7
192
54
9
106
153
36
115
137
125
5
118
95
27
26
67
159
18
84
99
81
100
66
196
86
28
141
135
119
108
59
198
140
85
15
142
158
169
16
216
90
48
4
203
149
121
177
35
11
58
39
124
20
91
184
3
2
133
191
40
103
80
50
93
23
129
186
114
110
6
32
166
126
189
24
75
94
44
183
161
70
61
63
130
34
136
45

> <PUBCHEM_MMFF94_PARTIAL_CHARGES>
30
1 -0.56
10 0.28
11 0.28
12 0.28
13 0.56
14 0.28
15 0.08
16 0.08
17 -0.15
18 -0.15
19 -0.15
2 -0.36
20 0.09
21 0.42
22 0.28
23 0.06
3 -0.68
31 0.4
32 0.4
33 0.4
34 0.4
35 0.15
36 0.15
37 0.15
4 -0.68
5 -0.68
6 -0.68
7 -0.36
8 -0.57
9 0.28

> <PUBCHEM_EFFECTIVE_ROTOR_COUNT>
6.2

> <PUBCHEM_PHARMACOPHORE_FEATURES>
14
1 1 acceptor
1 2 acceptor
1 3 acceptor
1 3 donor
1 4 acceptor
1 4 donor
1 5 acceptor
1 5 donor
1 6 acceptor
1 6 donor
1 7 acceptor
1 8 acceptor
6 1 9 10 11 12 13 rings
6 15 16 17 18 19 20 rings

> <PUBCHEM_HEAVY_ATOM_COUNT>
23

> <PUBCHEM_ATOM_DEF_STEREO_COUNT>
5

> <PUBCHEM_ATOM_UDEF_STEREO_COUNT>
0

> <PUBCHEM_BOND_DEF_STEREO_COUNT>
0

> <PUBCHEM_BOND_UDEF_STEREO_COUNT>
0

> <PUBCHEM_ISOTOPIC_ATOM_COUNT>
0

> <PUBCHEM_COMPONENT_COUNT>
1

> <PUBCHEM_CACTVS_TAUTO_COUNT>
2

> <PUBCHEM_CONFORMER_ID>
0002832800000001

> <PUBCHEM_MMFF94_ENERGY>
83.4188

> <PUBCHEM_FEATURE_SELFOVERLAP>
71.117

> <PUBCHEM_SHAPE_FINGERPRINT>
10366900 7 17749963176000682206
10906281 52 17386305232352227868
11140007 195 13039189225475980867
11578080 2 12614432632316567126
11796584 16 17989487438074363559
12236239 1 17846782913999003053
12553582 1 16558455444720122813
12592029 89 18335136496786188794
12596599 1 17485379880347861622
12596602 18 17489587887250602249
12788726 201 17417824915611753737
13009979 54 17414999050285428306
13836976 161 18261675964982610828
13862211 1 18264489482632757790
13911987 19 18117294729585051124
14341114 328 17775291560212808015
14787075 74 17775282811021340107
14844126 61 16028168326622574346
15375358 24 17458349636682232544
15375462 189 17918267649889077495
17138139 8 17843383335894742927
200 152 18341895190620238817
20028762 73 18201433641435726022
20567600 347 16443337659423326627
20600515 1 15697995271342138209
20645477 70 18187367644456193652
2297311 6 15338851888378032912
23402539 116 16226039037590185989
23526113 38 17677331597916589896
23557571 272 17095237017084527477
23559900 14 16660366978591494880
23598288 3 17416682454100494749
238 59 18333455335102053202
2871803 45 18335699416643216782
3323516 105 18113896053000947655
33382 64 18410298051542739947
33824 294 18335419067264519982
4340502 62 18269835470320142424
4409770 3 15461801808173570153
9709674 26 18114467764344768011

> <PUBCHEM_SHAPE_MULTIPOLES>
426.37
10.47
2.29
1.69
5.07
1.33
1.25
1.96
-2.93
-2.93
-0.27
1.69
-0.14
-0.15

> <PUBCHEM_SHAPE_SELFOVERLAP>
891.234

> <PUBCHEM_SHAPE_VOLUME>
239.9

> <PUBCHEM_COORDINATE_TYPE>
2
5
10

$$$$
