3037448
  -OEChem-09142001513D

 54 57  0     1  0  0  0  0  0999 V2000
    2.7532   -1.8131   -2.5953 O   0  0  0  0  0  0  0  0  0  0  0  0
   -4.6561    1.2896   -1.1781 O   0  0  0  0  0  0  0  0  0  0  0  0
   -1.6650    1.6983    1.6052 O   0  0  0  0  0  0  0  0  0  0  0  0
   -3.2459    0.1350   -2.5808 O   0  0  0  0  0  0  0  0  0  0  0  0
    0.6243   -1.8963    0.9868 N   0  0  2  0  0  0  0  0  0  0  0  0
    3.5187    0.2996   -1.9281 N   0  0  0  0  0  0  0  0  0  0  0  0
    0.8088   -1.2352   -0.3095 C   0  0  2  0  0  0  0  0  0  0  0  0
    2.3216   -0.9606   -0.3123 C   0  0  2  0  0  0  0  0  0  0  0  0
    2.9068   -2.1474    0.4820 C   0  0  0  0  0  0  0  0  0  0  0  0
   -0.1467   -0.0507   -0.4504 C   0  0  0  0  0  0  0  0  0  0  0  0
    1.6954   -2.8867    1.0584 C   0  0  0  0  0  0  0  0  0  0  0  0
   -1.6052   -0.5295   -0.3002 C   0  0  1  0  0  0  0  0  0  0  0  0
   -0.7152   -2.4623    1.1192 C   0  0  0  0  0  0  0  0  0  0  0  0
   -1.7767   -1.3458    1.0076 C   0  0  2  0  0  0  0  0  0  0  0  0
    2.7822    0.3710    0.2292 C   0  0  0  0  0  0  0  0  0  0  0  0
    2.8695   -0.9271   -1.7616 C   0  0  0  0  0  0  0  0  0  0  0  0
    3.4709    1.0610   -0.7668 C   0  0  0  0  0  0  0  0  0  0  0  0
   -2.5347    0.6477   -0.3599 C   0  0  0  0  0  0  0  0  0  0  0  0
   -3.1491   -1.9465    1.1135 C   0  0  0  0  0  0  0  0  0  0  0  0
    2.6310    0.9351    1.4850 C   0  0  0  0  0  0  0  0  0  0  0  0
    4.0152    2.3148   -0.5687 C   0  0  0  0  0  0  0  0  0  0  0  0
    3.1720    2.2046    1.7122 C   0  0  0  0  0  0  0  0  0  0  0  0
   -3.4989    0.6522   -1.5002 C   0  0  0  0  0  0  0  0  0  0  0  0
   -2.5227    1.6436    0.5382 C   0  0  0  0  0  0  0  0  0  0  0  0
    3.8572    2.8892    0.6930 C   0  0  0  0  0  0  0  0  0  0  0  0
   -4.0140   -1.6686    2.0949 C   0  0  0  0  0  0  0  0  0  0  0  0
   -5.6449    1.3444   -2.2120 C   0  0  0  0  0  0  0  0  0  0  0  0
   -2.2518    2.3837    2.6987 C   0  0  0  0  0  0  0  0  0  0  0  0
    0.5766   -1.9486   -1.1161 H   0  0  0  0  0  0  0  0  0  0  0  0
    3.5596   -1.8138    1.2978 H   0  0  0  0  0  0  0  0  0  0  0  0
    3.4948   -2.8260   -0.1464 H   0  0  0  0  0  0  0  0  0  0  0  0
   -0.0075    0.4158   -1.4343 H   0  0  0  0  0  0  0  0  0  0  0  0
    0.0952    0.7123    0.2936 H   0  0  0  0  0  0  0  0  0  0  0  0
    1.4764   -3.7687    0.4431 H   0  0  0  0  0  0  0  0  0  0  0  0
    1.8787   -3.2170    2.0856 H   0  0  0  0  0  0  0  0  0  0  0  0
   -1.8077   -1.2106   -1.1389 H   0  0  0  0  0  0  0  0  0  0  0  0
   -0.8067   -2.9516    2.0975 H   0  0  0  0  0  0  0  0  0  0  0  0
   -0.8923   -3.2332    0.3563 H   0  0  0  0  0  0  0  0  0  0  0  0
   -1.6126   -0.6932    1.8748 H   0  0  0  0  0  0  0  0  0  0  0  0
    3.9759    0.6035   -2.7796 H   0  0  0  0  0  0  0  0  0  0  0  0
   -3.4526   -2.6490    0.3409 H   0  0  0  0  0  0  0  0  0  0  0  0
    2.1051    0.4151    2.2783 H   0  0  0  0  0  0  0  0  0  0  0  0
    4.5477    2.8374   -1.3550 H   0  0  0  0  0  0  0  0  0  0  0  0
    3.0626    2.6689    2.6888 H   0  0  0  0  0  0  0  0  0  0  0  0
   -3.1821    2.4999    0.4776 H   0  0  0  0  0  0  0  0  0  0  0  0
    4.2698    3.8744    0.8930 H   0  0  0  0  0  0  0  0  0  0  0  0
   -4.9923   -2.1364    2.1131 H   0  0  0  0  0  0  0  0  0  0  0  0
   -3.7668   -0.9750    2.8909 H   0  0  0  0  0  0  0  0  0  0  0  0
   -6.5150    1.8791   -1.8219 H   0  0  0  0  0  0  0  0  0  0  0  0
   -5.9520    0.3333   -2.4958 H   0  0  0  0  0  0  0  0  0  0  0  0
   -5.2571    1.8889   -3.0782 H   0  0  0  0  0  0  0  0  0  0  0  0
   -1.5597    2.3301    3.5443 H   0  0  0  0  0  0  0  0  0  0  0  0
   -3.1943    1.9133    3.0007 H   0  0  0  0  0  0  0  0  0  0  0  0
   -2.4128    3.4406    2.4594 H   0  0  0  0  0  0  0  0  0  0  0  0
  1 16  2  0  0  0  0
  2 23  1  0  0  0  0
  2 27  1  0  0  0  0
  3 24  1  0  0  0  0
  3 28  1  0  0  0  0
  4 23  2  0  0  0  0
  5  7  1  0  0  0  0
  5 11  1  0  0  0  0
  5 13  1  0  0  0  0
  6 16  1  0  0  0  0
  6 17  1  0  0  0  0
  6 40  1  0  0  0  0
  7  8  1  0  0  0  0
  7 10  1  0  0  0  0
  7 29  1  0  0  0  0
  8  9  1  0  0  0  0
  8 15  1  0  0  0  0
  8 16  1  0  0  0  0
  9 11  1  0  0  0  0
  9 30  1  0  0  0  0
  9 31  1  0  0  0  0
 10 12  1  0  0  0  0
 10 32  1  0  0  0  0
 10 33  1  0  0  0  0
 11 34  1  0  0  0  0
 11 35  1  0  0  0  0
 12 14  1  0  0  0  0
 12 18  1  0  0  0  0
 12 36  1  0  0  0  0
 13 14  1  0  0  0  0
 13 37  1  0  0  0  0
 13 38  1  0  0  0  0
 14 19  1  0  0  0  0
 14 39  1  0  0  0  0
 15 17  1  0  0  0  0
 15 20  2  0  0  0  0
 17 21  2  0  0  0  0
 18 23  1  0  0  0  0
 18 24  2  0  0  0  0
 19 26  2  0  0  0  0
 19 41  1  0  0  0  0
 20 22  1  0  0  0  0
 20 42  1  0  0  0  0
 21 25  1  0  0  0  0
 21 43  1  0  0  0  0
 22 25  2  0  0  0  0
 22 44  1  0  0  0  0
 24 45  1  0  0  0  0
 25 46  1  0  0  0  0
 26 47  1  0  0  0  0
 26 48  1  0  0  0  0
 27 49  1  0  0  0  0
 27 50  1  0  0  0  0
 27 51  1  0  0  0  0
 28 52  1  0  0  0  0
 28 53  1  0  0  0  0
 28 54  1  0  0  0  0
M  END
> <PUBCHEM_COMPOUND_CID>
3037448

> <PUBCHEM_CONFORMER_RMSD>
0.8

> <PUBCHEM_CONFORMER_DIVERSEORDER>
1
14
6
19
10
16
17
12
8
20
9
11
18
13
4
15
7
3
2
5

> <PUBCHEM_MMFF94_PARTIAL_CHARGES>
35
1 -0.57
11 0.27
12 0.14
13 0.27
14 0.14
15 -0.14
16 0.57
17 0.12
18 -0.12
19 -0.29
2 -0.43
20 -0.15
21 -0.15
22 -0.15
23 0.71
24 -0.07
25 -0.15
26 -0.3
27 0.28
28 0.28
3 -0.36
4 -0.57
40 0.37
41 0.15
42 0.15
43 0.15
44 0.15
45 0.15
46 0.15
47 0.15
48 0.15
5 -0.81
6 -0.55
7 0.27
8 0.2

> <PUBCHEM_EFFECTIVE_ROTOR_COUNT>
6.4

> <PUBCHEM_PHARMACOPHORE_FEATURES>
10
1 1 acceptor
1 26 hydrophobe
1 3 acceptor
1 4 acceptor
1 5 cation
1 6 donor
5 5 7 8 9 11 rings
5 6 8 15 16 17 rings
6 15 17 20 21 22 25 rings
6 5 7 10 12 13 14 rings

> <PUBCHEM_HEAVY_ATOM_COUNT>
28

> <PUBCHEM_ATOM_DEF_STEREO_COUNT>
4

> <PUBCHEM_ATOM_UDEF_STEREO_COUNT>
0

> <PUBCHEM_BOND_DEF_STEREO_COUNT>
1

> <PUBCHEM_BOND_UDEF_STEREO_COUNT>
0

> <PUBCHEM_ISOTOPIC_ATOM_COUNT>
0

> <PUBCHEM_COMPONENT_COUNT>
1

> <PUBCHEM_CACTVS_TAUTO_COUNT>
2

> <PUBCHEM_CONFORMER_ID>
002E590800000001

> <PUBCHEM_MMFF94_ENERGY>
83.6087

> <PUBCHEM_FEATURE_SELFOVERLAP>
50.922

> <PUBCHEM_SHAPE_FINGERPRINT>
10165383 225 17682161791400093430
10498660 4 18259992582146501844
10928967 22 12823016481990679181
11578080 2 18187086156921589817
11595378 159 17168986862158844050
12156800 1 15590115738415582214
12403259 415 18261679276344230444
12788726 201 16444207472300738443
13134695 92 17974271137338118790
13140716 1 17822565019293474931
13224815 77 18408889554860105043
13965767 371 17095788976226973356
14787075 74 18052824937845445291
173720 79 16298374774311634951
17980427 23 17986376807751876610
18981168 100 18261118473642439578
192875 21 18198045993921171386
20715895 44 17823675513669702133
21033648 29 18190170368774067104
21864079 5 17917158203669857745
22149856 69 17822581500433157005
22182313 1 18334864951990215807
23559900 14 18040993995109494702
238 59 17988920132586325088
350125 39 18187658998111321826
4340502 62 18041266691884728255
469060 322 17532391935555925027
474 4 18336533963106499668
495365 180 18335967693106461374
5252454 2 17970093087155923637
57527585 21 17917162705022833297
5895379 119 17273696442996660576
70251023 43 17774441568878447343
7808743 9 17683536400337121212
9981440 41 18191848218911662098

> <PUBCHEM_SHAPE_MULTIPOLES>
542.79
9.23
3.29
2.5
5.17
0.39
-0.4
-5.14
-3.21
-1.16
1.55
1.52
-0.67
2.21

> <PUBCHEM_SHAPE_SELFOVERLAP>
1172.203

> <PUBCHEM_SHAPE_VOLUME>
299

> <PUBCHEM_COORDINATE_TYPE>
2
5
10

$$$$
