3037884
  -OEChem-09142002103D

 55 58  0     1  0  0  0  0  0999 V2000
    4.0224    2.5161    0.6249 O   0  0  0  0  0  0  0  0  0  0  0  0
    3.8725   -1.0497   -1.4059 O   0  0  0  0  0  0  0  0  0  0  0  0
    1.7540    2.7993    0.3726 O   0  0  0  0  0  0  0  0  0  0  0  0
   -0.1974   -2.4467   -0.3374 N   0  0  1  0  0  0  0  0  0  0  0  0
   -1.9496    0.7835   -1.1408 N   0  0  0  0  0  0  0  0  0  0  0  0
   -0.4099   -1.2674   -1.2209 C   0  0  2  0  0  0  0  0  0  0  0  0
    1.7267   -1.3278    0.8165 C   0  0  2  0  0  0  0  0  0  0  0  0
    1.4942   -0.0490   -0.0145 C   0  0  2  0  0  0  0  0  0  0  0  0
    0.8655   -0.4251   -1.3617 C   0  0  0  0  0  0  0  0  0  0  0  0
    0.4074   -2.1077    0.9605 C   0  0  0  0  0  0  0  0  0  0  0  0
   -1.6292   -0.4996   -0.7992 C   0  0  0  0  0  0  0  0  0  0  0  0
   -1.4583   -3.2094   -0.1577 C   0  0  0  0  0  0  0  0  0  0  0  0
   -2.6632   -1.0162   -0.0447 C   0  0  0  0  0  0  0  0  0  0  0  0
   -2.6205   -2.4096    0.4830 C   0  0  0  0  0  0  0  0  0  0  0  0
    2.2922   -1.0183    2.2079 C   0  0  0  0  0  0  0  0  0  0  0  0
    2.7567    0.7249   -0.2534 C   0  0  0  0  0  0  0  0  0  0  0  0
   -3.6403    0.0046    0.1056 C   0  0  0  0  0  0  0  0  0  0  0  0
   -3.1682    1.1222   -0.5909 C   0  0  0  0  0  0  0  0  0  0  0  0
    2.5941   -2.2914    2.9673 C   0  0  0  0  0  0  0  0  0  0  0  0
    2.7688    2.1209    0.2765 C   0  0  0  0  0  0  0  0  0  0  0  0
    3.8202    0.2213   -0.8969 C   0  0  0  0  0  0  0  0  0  0  0  0
   -4.8828    0.0923    0.7647 C   0  0  0  0  0  0  0  0  0  0  0  0
   -3.8830    2.3235   -0.6603 C   0  0  0  0  0  0  0  0  0  0  0  0
   -5.6064    1.2885    0.7038 C   0  0  0  0  0  0  0  0  0  0  0  0
   -5.1124    2.3856    0.0015 C   0  0  0  0  0  0  0  0  0  0  0  0
    4.1337    3.8450    1.1457 C   0  0  0  0  0  0  0  0  0  0  0  0
    4.7127   -1.1098   -2.5463 C   0  0  0  0  0  0  0  0  0  0  0  0
   -0.6326   -1.6576   -2.2249 H   0  0  0  0  0  0  0  0  0  0  0  0
    2.4332   -1.9903    0.3007 H   0  0  0  0  0  0  0  0  0  0  0  0
    0.7726    0.5723    0.5324 H   0  0  0  0  0  0  0  0  0  0  0  0
    1.5601   -1.0184   -1.9678 H   0  0  0  0  0  0  0  0  0  0  0  0
    0.6656    0.4817   -1.9471 H   0  0  0  0  0  0  0  0  0  0  0  0
    0.5961   -3.0544    1.4774 H   0  0  0  0  0  0  0  0  0  0  0  0
   -0.2813   -1.5305    1.5898 H   0  0  0  0  0  0  0  0  0  0  0  0
   -1.2710   -4.1170    0.4294 H   0  0  0  0  0  0  0  0  0  0  0  0
   -1.7784   -3.5655   -1.1465 H   0  0  0  0  0  0  0  0  0  0  0  0
   -2.4913   -2.3746    1.5713 H   0  0  0  0  0  0  0  0  0  0  0  0
   -3.5682   -2.9213    0.2811 H   0  0  0  0  0  0  0  0  0  0  0  0
    1.5963   -0.3974    2.7845 H   0  0  0  0  0  0  0  0  0  0  0  0
    3.2258   -0.4518    2.1196 H   0  0  0  0  0  0  0  0  0  0  0  0
   -1.3856    1.3998   -1.7093 H   0  0  0  0  0  0  0  0  0  0  0  0
    1.6855   -2.7921    3.3139 H   0  0  0  0  0  0  0  0  0  0  0  0
    3.1791   -2.9948    2.3662 H   0  0  0  0  0  0  0  0  0  0  0  0
    3.1803   -2.0558    3.8624 H   0  0  0  0  0  0  0  0  0  0  0  0
    4.7293    0.7850   -1.0635 H   0  0  0  0  0  0  0  0  0  0  0  0
   -5.2811   -0.7550    1.3157 H   0  0  0  0  0  0  0  0  0  0  0  0
   -3.4999    3.1787   -1.2069 H   0  0  0  0  0  0  0  0  0  0  0  0
   -6.5652    1.3608    1.2105 H   0  0  0  0  0  0  0  0  0  0  0  0
   -5.6913    3.3050   -0.0333 H   0  0  0  0  0  0  0  0  0  0  0  0
    3.5447    3.9426    2.0626 H   0  0  0  0  0  0  0  0  0  0  0  0
    3.8084    4.5734    0.3970 H   0  0  0  0  0  0  0  0  0  0  0  0
    5.1848    4.0302    1.3824 H   0  0  0  0  0  0  0  0  0  0  0  0
    4.6582   -2.1229   -2.9558 H   0  0  0  0  0  0  0  0  0  0  0  0
    5.7556   -0.9093   -2.2772 H   0  0  0  0  0  0  0  0  0  0  0  0
    4.3779   -0.4116   -3.3217 H   0  0  0  0  0  0  0  0  0  0  0  0
  1 20  1  0  0  0  0
  1 26  1  0  0  0  0
  2 21  1  0  0  0  0
  2 27  1  0  0  0  0
  3 20  2  0  0  0  0
  4  6  1  0  0  0  0
  4 10  1  0  0  0  0
  4 12  1  0  0  0  0
  5 11  1  0  0  0  0
  5 18  1  0  0  0  0
  5 41  1  0  0  0  0
  6  9  1  0  0  0  0
  6 11  1  0  0  0  0
  6 28  1  0  0  0  0
  7  8  1  0  0  0  0
  7 10  1  0  0  0  0
  7 15  1  0  0  0  0
  7 29  1  0  0  0  0
  8  9  1  0  0  0  0
  8 16  1  0  0  0  0
  8 30  1  0  0  0  0
  9 31  1  0  0  0  0
  9 32  1  0  0  0  0
 10 33  1  0  0  0  0
 10 34  1  0  0  0  0
 11 13  2  0  0  0  0
 12 14  1  0  0  0  0
 12 35  1  0  0  0  0
 12 36  1  0  0  0  0
 13 14  1  0  0  0  0
 13 17  1  0  0  0  0
 14 37  1  0  0  0  0
 14 38  1  0  0  0  0
 15 19  1  0  0  0  0
 15 39  1  0  0  0  0
 15 40  1  0  0  0  0
 16 20  1  0  0  0  0
 16 21  2  0  0  0  0
 17 18  1  0  0  0  0
 17 22  2  0  0  0  0
 18 23  2  0  0  0  0
 19 42  1  0  0  0  0
 19 43  1  0  0  0  0
 19 44  1  0  0  0  0
 21 45  1  0  0  0  0
 22 24  1  0  0  0  0
 22 46  1  0  0  0  0
 23 25  1  0  0  0  0
 23 47  1  0  0  0  0
 24 25  2  0  0  0  0
 24 48  1  0  0  0  0
 25 49  1  0  0  0  0
 26 50  1  0  0  0  0
 26 51  1  0  0  0  0
 26 52  1  0  0  0  0
 27 53  1  0  0  0  0
 27 54  1  0  0  0  0
 27 55  1  0  0  0  0
M  END
> <PUBCHEM_COMPOUND_CID>
3037884

> <PUBCHEM_CONFORMER_RMSD>
0.8

> <PUBCHEM_CONFORMER_DIVERSEORDER>
1
9
16
10
24
30
12
25
4
8
23
20
29
19
13
31
27
14
17
2
21
15
26
7
6
11
22
3
34
28
5
32
18
33

> <PUBCHEM_MMFF94_PARTIAL_CHARGES>
28
1 -0.43
10 0.27
11 -0.33
12 0.27
13 -0.18
14 0.18
16 -0.12
18 -0.15
2 -0.36
20 0.71
21 -0.07
22 -0.15
23 -0.15
24 -0.15
25 -0.15
26 0.28
27 0.28
3 -0.57
4 -0.81
41 0.27
45 0.15
46 0.15
47 0.15
48 0.15
49 0.15
5 0.03
6 0.45
8 0.14

> <PUBCHEM_EFFECTIVE_ROTOR_COUNT>
6.2

> <PUBCHEM_PHARMACOPHORE_FEATURES>
10
1 19 hydrophobe
1 2 acceptor
1 3 acceptor
1 4 cation
1 5 cation
1 5 donor
5 5 11 13 17 18 rings
6 17 18 22 23 24 25 rings
6 4 6 11 12 13 14 rings
6 4 6 7 8 9 10 rings

> <PUBCHEM_HEAVY_ATOM_COUNT>
27

> <PUBCHEM_ATOM_DEF_STEREO_COUNT>
3

> <PUBCHEM_ATOM_UDEF_STEREO_COUNT>
0

> <PUBCHEM_BOND_DEF_STEREO_COUNT>
1

> <PUBCHEM_BOND_UDEF_STEREO_COUNT>
0

> <PUBCHEM_ISOTOPIC_ATOM_COUNT>
0

> <PUBCHEM_COMPONENT_COUNT>
1

> <PUBCHEM_CACTVS_TAUTO_COUNT>
1

> <PUBCHEM_CONFORMER_ID>
002E5ABC00000001

> <PUBCHEM_MMFF94_ENERGY>
65.6672

> <PUBCHEM_FEATURE_SELFOVERLAP>
50.993

> <PUBCHEM_SHAPE_FINGERPRINT>
10165383 225 18189068516008826703
10366900 7 17822019717850834873
11578080 2 16414337035539997314
11720765 8 17916593016892932964
12596602 18 14851905646320143877
12633257 1 18189885431990081435
12892183 10 17894351077594200227
13140716 1 18261381231162496635
13533116 47 17677046846650115307
13583140 156 17604413138235674805
13965767 371 18187357693117176437
14178342 30 17823411780748813882
14251757 17 18271537480498258468
14739800 52 18195507393550949840
14955137 171 18045771291807689970
15238133 3 18191583051777898784
20465049 17 18337405845757163326
21033648 29 18114174216716792061
21033650 10 13182201585992965107
21503847 285 18343867692752522372
21756936 100 18198050581310551816
21864079 5 18411972572901305349
23227448 37 18341612680835926397
23558518 356 18046062924154695230
23559900 14 18202286861909604126
2637199 183 18335711502639080502
376196 1 17912918668045096024
392239 28 17610343019029534731
469060 322 17024579208749203791
474 4 18199746960606824537
5081480 168 17629237954665046948
5104073 3 18335416923806684714
5252454 2 18113336396902301548
57527295 17 18262246624882993078
57527585 21 17693650828774820476
633830 44 18272644636951479109
7097593 13 17824801387421788171
7399639 24 17552924335867994398
7808743 9 18268423718923320369

> <PUBCHEM_SHAPE_MULTIPOLES>
528.08
10.47
3.82
1.88
6.12
1.65
-0.46
7.38
0.06
-1.76
-1.46
-2.89
-1.08
0.78

> <PUBCHEM_SHAPE_SELFOVERLAP>
1135.824

> <PUBCHEM_SHAPE_VOLUME>
289.2

> <PUBCHEM_COORDINATE_TYPE>
2
5
10

$$$$
