157561
  -OEChem-09142002113D

 41 46  0     1  0  0  0  0  0999 V2000
    2.6505    0.9376    1.8945 O   0  0  0  0  0  0  0  0  0  0  0  0
    3.4604    1.0752   -1.6793 O   0  0  0  0  0  0  0  0  0  0  0  0
   -3.8116    1.8482    0.6432 O   0  0  0  0  0  0  0  0  0  0  0  0
   -4.6778    0.1394   -0.8167 O   0  0  0  0  0  0  0  0  0  0  0  0
    1.0076   -2.2746   -0.4259 N   0  0  1  0  0  0  0  0  0  0  0  0
    0.7864   -0.2186    0.6968 C   0  0  1  0  0  0  0  0  0  0  0  0
    1.4502    1.0826    1.1042 C   0  0  2  0  0  0  0  0  0  0  0  0
    1.5459   -0.8969   -0.4721 C   0  0  1  0  0  0  0  0  0  0  0  0
    2.8194    1.4634    0.5796 C   0  0  2  0  0  0  0  0  0  0  0  0
    0.8245   -1.3079    1.7880 C   0  0  0  0  0  0  0  0  0  0  0  0
    3.0773   -0.8693   -0.3229 C   0  0  0  0  0  0  0  0  0  0  0  0
    3.5834    0.5749   -0.3482 C   0  0  1  0  0  0  0  0  0  0  0  0
   -0.6921   -0.0768    0.2672 C   0  0  0  0  0  0  0  0  0  0  0  0
    0.9399   -2.6232    1.0106 C   0  0  0  0  0  0  0  0  0  0  0  0
   -0.3463   -2.2520   -1.0270 C   0  0  0  0  0  0  0  0  0  0  0  0
   -1.2313   -1.1082   -0.5650 C   0  0  0  0  0  0  0  0  0  0  0  0
   -1.5477    0.9389    0.7230 C   0  0  0  0  0  0  0  0  0  0  0  0
   -2.5726   -1.0796   -0.9774 C   0  0  0  0  0  0  0  0  0  0  0  0
   -2.8641    0.9317    0.3000 C   0  0  0  0  0  0  0  0  0  0  0  0
   -3.3606   -0.0440   -0.5292 C   0  0  0  0  0  0  0  0  0  0  0  0
    3.9150    2.4163   -1.7702 C   0  0  0  0  0  0  0  0  0  0  0  0
   -4.9565    1.3429   -0.0732 C   0  0  0  0  0  0  0  0  0  0  0  0
    0.7984    1.8815    1.4168 H   0  0  0  0  0  0  0  0  0  0  0  0
    1.3139   -0.4225   -1.4376 H   0  0  0  0  0  0  0  0  0  0  0  0
    3.1046    2.5048    0.5622 H   0  0  0  0  0  0  0  0  0  0  0  0
   -0.0654   -1.2975    2.4285 H   0  0  0  0  0  0  0  0  0  0  0  0
    1.6927   -1.2124    2.4492 H   0  0  0  0  0  0  0  0  0  0  0  0
    3.3936   -1.3489    0.6109 H   0  0  0  0  0  0  0  0  0  0  0  0
    3.5302   -1.4348   -1.1470 H   0  0  0  0  0  0  0  0  0  0  0  0
    4.6462    0.5737   -0.0757 H   0  0  0  0  0  0  0  0  0  0  0  0
    1.8648   -3.1387    1.2954 H   0  0  0  0  0  0  0  0  0  0  0  0
    0.1199   -3.3117    1.2459 H   0  0  0  0  0  0  0  0  0  0  0  0
   -0.8472   -3.2101   -0.8391 H   0  0  0  0  0  0  0  0  0  0  0  0
   -0.2310   -2.1705   -2.1159 H   0  0  0  0  0  0  0  0  0  0  0  0
   -1.2238    1.7152    1.4046 H   0  0  0  0  0  0  0  0  0  0  0  0
   -2.9788   -1.8530   -1.6207 H   0  0  0  0  0  0  0  0  0  0  0  0
    3.1259    3.1177   -1.4841 H   0  0  0  0  0  0  0  0  0  0  0  0
    4.1456    2.6145   -2.8217 H   0  0  0  0  0  0  0  0  0  0  0  0
    4.8294    2.5876   -1.1925 H   0  0  0  0  0  0  0  0  0  0  0  0
   -5.3029    2.1144   -0.7706 H   0  0  0  0  0  0  0  0  0  0  0  0
   -5.7564    1.1338    0.6463 H   0  0  0  0  0  0  0  0  0  0  0  0
  1  7  1  0  0  0  0
  1  9  1  0  0  0  0
  2 12  1  0  0  0  0
  2 21  1  0  0  0  0
  3 19  1  0  0  0  0
  3 22  1  0  0  0  0
  4 20  1  0  0  0  0
  4 22  1  0  0  0  0
  5  8  1  0  0  0  0
  5 14  1  0  0  0  0
  5 15  1  0  0  0  0
  6  7  1  0  0  0  0
  6  8  1  0  0  0  0
  6 10  1  0  0  0  0
  6 13  1  0  0  0  0
  7  9  1  0  0  0  0
  7 23  1  0  0  0  0
  8 11  1  0  0  0  0
  8 24  1  0  0  0  0
  9 12  1  0  0  0  0
  9 25  1  0  0  0  0
 10 14  1  0  0  0  0
 10 26  1  0  0  0  0
 10 27  1  0  0  0  0
 11 12  1  0  0  0  0
 11 28  1  0  0  0  0
 11 29  1  0  0  0  0
 12 30  1  0  0  0  0
 13 16  1  0  0  0  0
 13 17  2  0  0  0  0
 14 31  1  0  0  0  0
 14 32  1  0  0  0  0
 15 16  1  0  0  0  0
 15 33  1  0  0  0  0
 15 34  1  0  0  0  0
 16 18  2  0  0  0  0
 17 19  1  0  0  0  0
 17 35  1  0  0  0  0
 18 20  1  0  0  0  0
 18 36  1  0  0  0  0
 19 20  2  0  0  0  0
 21 37  1  0  0  0  0
 21 38  1  0  0  0  0
 21 39  1  0  0  0  0
 22 40  1  0  0  0  0
 22 41  1  0  0  0  0
M  END
> <PUBCHEM_COMPOUND_CID>
157561

> <PUBCHEM_CONFORMER_RMSD>
0.6

> <PUBCHEM_CONFORMER_DIVERSEORDER>
1
2

> <PUBCHEM_MMFF94_PARTIAL_CHARGES>
24
1 -0.3
12 0.38
13 -0.14
14 0.27
15 0.41
16 -0.14
17 -0.15
18 -0.15
19 0.08
2 -0.56
20 0.08
21 0.28
22 0.56
23 0.1
25 0.1
3 -0.36
35 0.15
36 0.15
4 -0.36
5 -0.81
6 0.24
7 -0.05
8 0.27
9 -0.05

> <PUBCHEM_EFFECTIVE_ROTOR_COUNT>
2.8

> <PUBCHEM_PHARMACOPHORE_FEATURES>
9
1 1 acceptor
1 2 acceptor
1 3 acceptor
1 4 acceptor
1 5 cation
5 3 4 19 20 22 rings
6 13 16 17 18 19 20 rings
7 1 6 7 8 9 11 12 rings
8 5 6 8 10 13 14 15 16 rings

> <PUBCHEM_HEAVY_ATOM_COUNT>
22

> <PUBCHEM_ATOM_DEF_STEREO_COUNT>
5

> <PUBCHEM_ATOM_UDEF_STEREO_COUNT>
0

> <PUBCHEM_BOND_DEF_STEREO_COUNT>
0

> <PUBCHEM_BOND_UDEF_STEREO_COUNT>
0

> <PUBCHEM_ISOTOPIC_ATOM_COUNT>
0

> <PUBCHEM_COMPONENT_COUNT>
1

> <PUBCHEM_CACTVS_TAUTO_COUNT>
1

> <PUBCHEM_CONFORMER_ID>
0002677900000001

> <PUBCHEM_MMFF94_ENERGY>
80.4794

> <PUBCHEM_FEATURE_SELFOVERLAP>
45.847

> <PUBCHEM_SHAPE_FINGERPRINT>
10498660 4 18272080613409558309
10863032 1 18342458161821786318
10948715 1 18187935014010155270
11640471 11 17678728162784255236
11796584 16 13398634909613631341
11961588 58 18267870678066105900
12173636 292 18272922843605763999
12633257 1 16370712747329184088
12644460 14 18269561537902154979
12788726 201 17538563614292273770
12892183 10 14345783959537443084
13009979 54 17056122818381193947
13224815 77 18411694379474670971
13583140 156 16153982555869744401
14142880 1 16810395541996558268
14289901 80 17386000625261214043
14787075 74 17899701447030357515
15342168 16 17822580506992744525
15475509 35 11815599939957782341
15534591 1 17679029441870881516
16945 1 18057037136958669706
17134986 127 18342452664337383496
1813 80 17755850927835317042
18186145 218 17489314130287989458
19862831 5 17561082501465659465
200 152 14117533059915740652
20626108 58 10519983734118351365
20775530 9 13108197792187437348
21524375 3 18409727365693763826
21756936 100 17460605951039666428
22182313 1 17486493977837230802
2255824 54 18190459363790263355
22854114 111 18339917130520608643
22907989 373 17758977199758107238
23366157 5 18192431875024093263
23419403 2 17401268451887918874
23493267 7 18335138726011619275
23558518 356 17834940237496516824
23559900 14 17843677760593405071
25 1 18412265025661547738
25265897 201 17472189314274904844
2637199 183 18272658934676112935
2748010 2 16760266693308633818
2838139 119 17896046610498300820
298252 57 18272371988059188834
3060560 45 17988635272800761004
394222 165 18333448720726038130
4340502 62 17676214546370442347
463206 1 12607409875166516269
474 4 18186804690139155452
484985 159 11956127266704629436
4990 188 17060618906194665693
5262128 65 16486985028282648672
633830 44 18186802486836802358
7364860 26 18058721395214135586
76465 3 10951779542547998244
9981440 41 17908130333497033760
9999458 23 17749393629014761630

> <PUBCHEM_SHAPE_MULTIPOLES>
424.29
7.77
2.46
1.5
5.56
0.65
0.12
-5.73
-2.26
-1.06
-0.26
-1.15
-0.18
-1.21

> <PUBCHEM_SHAPE_SELFOVERLAP>
962.836

> <PUBCHEM_SHAPE_VOLUME>
222.4

> <PUBCHEM_COORDINATE_TYPE>
2
5
10

$$$$
