5384527
  -OEChem-09142003043D

 48 51  0     1  0  0  0  0  0999 V2000
   -4.5143    0.3802   -1.0905 O   0  0  0  0  0  0  0  0  0  0  0  0
   -4.1096    2.5516   -0.3975 O   0  0  0  0  0  0  0  0  0  0  0  0
   -3.5831   -1.3359    2.5863 O   0  0  0  0  0  0  0  0  0  0  0  0
   -0.2095    1.4115    0.4904 N   0  0  3  0  0  0  0  0  0  0  0  0
    2.4426   -1.2488    0.0163 N   0  0  0  0  0  0  0  0  0  0  0  0
    0.2388   -0.0081    0.3828 C   0  0  1  0  0  0  0  0  0  0  0  0
   -0.5341   -0.6896   -0.7709 C   0  0  0  0  0  0  0  0  0  0  0  0
    1.7173   -0.1034    0.1719 C   0  0  0  0  0  0  0  0  0  0  0  0
   -2.0680   -0.5383   -0.6276 C   0  0  2  0  0  0  0  0  0  0  0  0
    2.5816    0.9697    0.1478 C   0  0  0  0  0  0  0  0  0  0  0  0
    0.7432    2.3733    1.0773 C   0  0  0  0  0  0  0  0  0  0  0  0
    2.0845    2.3637    0.3158 C   0  0  0  0  0  0  0  0  0  0  0  0
   -2.4202    0.8917   -0.3064 C   0  0  0  0  0  0  0  0  0  0  0  0
   -1.5199    1.7479    0.1966 C   0  0  0  0  0  0  0  0  0  0  0  0
    3.8918    0.4595   -0.0593 C   0  0  0  0  0  0  0  0  0  0  0  0
    3.7764   -0.9335   -0.1389 C   0  0  0  0  0  0  0  0  0  0  0  0
   -2.6125   -1.4812    0.4078 C   0  0  0  0  0  0  0  0  0  0  0  0
    5.1693    1.0411   -0.1855 C   0  0  0  0  0  0  0  0  0  0  0  0
   -3.7648    1.3962   -0.5921 C   0  0  0  0  0  0  0  0  0  0  0  0
    4.8804   -1.7703   -0.3391 C   0  0  0  0  0  0  0  0  0  0  0  0
   -3.0089   -2.7531    0.2323 C   0  0  0  0  0  0  0  0  0  0  0  0
    6.2806    0.2145   -0.3872 C   0  0  0  0  0  0  0  0  0  0  0  0
   -2.7290   -0.9521    1.7955 C   0  0  0  0  0  0  0  0  0  0  0  0
    6.1360   -1.1691   -0.4625 C   0  0  0  0  0  0  0  0  0  0  0  0
   -3.0036   -3.5370   -1.0410 C   0  0  0  0  0  0  0  0  0  0  0  0
   -5.8649    0.7191   -1.4222 C   0  0  0  0  0  0  0  0  0  0  0  0
    0.0211   -0.5121    1.3315 H   0  0  0  0  0  0  0  0  0  0  0  0
   -0.2278   -0.2362   -1.7256 H   0  0  0  0  0  0  0  0  0  0  0  0
   -0.2609   -1.7508   -0.8402 H   0  0  0  0  0  0  0  0  0  0  0  0
   -2.4846   -0.7900   -1.6112 H   0  0  0  0  0  0  0  0  0  0  0  0
    0.9052    2.1049    2.1291 H   0  0  0  0  0  0  0  0  0  0  0  0
    0.3378    3.3920    1.0649 H   0  0  0  0  0  0  0  0  0  0  0  0
    2.8165    2.9735    0.8565 H   0  0  0  0  0  0  0  0  0  0  0  0
    1.9460    2.8096   -0.6767 H   0  0  0  0  0  0  0  0  0  0  0  0
   -1.7500    2.7857    0.4097 H   0  0  0  0  0  0  0  0  0  0  0  0
    2.0648   -2.1864    0.0086 H   0  0  0  0  0  0  0  0  0  0  0  0
    5.2983    2.1182   -0.1286 H   0  0  0  0  0  0  0  0  0  0  0  0
    4.7700   -2.8480   -0.3970 H   0  0  0  0  0  0  0  0  0  0  0  0
   -3.3797   -3.3197    1.0851 H   0  0  0  0  0  0  0  0  0  0  0  0
   -1.9994   -0.1908    2.0999 H   0  0  0  0  0  0  0  0  0  0  0  0
    7.2675    0.6589   -0.4856 H   0  0  0  0  0  0  0  0  0  0  0  0
    7.0130   -1.7921   -0.6191 H   0  0  0  0  0  0  0  0  0  0  0  0
   -2.4267   -4.4570   -0.9037 H   0  0  0  0  0  0  0  0  0  0  0  0
   -4.0275   -3.8124   -1.3112 H   0  0  0  0  0  0  0  0  0  0  0  0
   -2.5637   -2.9922   -1.8796 H   0  0  0  0  0  0  0  0  0  0  0  0
   -6.3550   -0.1783   -1.8090 H   0  0  0  0  0  0  0  0  0  0  0  0
   -5.8820    1.4913   -2.1972 H   0  0  0  0  0  0  0  0  0  0  0  0
   -6.4007    1.0551   -0.5293 H   0  0  0  0  0  0  0  0  0  0  0  0
  1 19  1  0  0  0  0
  1 26  1  0  0  0  0
  2 19  2  0  0  0  0
  3 23  2  0  0  0  0
  4  6  1  0  0  0  0
  4 11  1  0  0  0  0
  4 14  1  0  0  0  0
  5  8  1  0  0  0  0
  5 16  1  0  0  0  0
  5 36  1  0  0  0  0
  6  7  1  0  0  0  0
  6  8  1  0  0  0  0
  6 27  1  0  0  0  0
  7  9  1  0  0  0  0
  7 28  1  0  0  0  0
  7 29  1  0  0  0  0
  8 10  2  0  0  0  0
  9 13  1  0  0  0  0
  9 17  1  0  0  0  0
  9 30  1  0  0  0  0
 10 12  1  0  0  0  0
 10 15  1  0  0  0  0
 11 12  1  0  0  0  0
 11 31  1  0  0  0  0
 11 32  1  0  0  0  0
 12 33  1  0  0  0  0
 12 34  1  0  0  0  0
 13 14  2  0  0  0  0
 13 19  1  0  0  0  0
 14 35  1  0  0  0  0
 15 16  1  0  0  0  0
 15 18  2  0  0  0  0
 16 20  2  0  0  0  0
 17 21  2  0  0  0  0
 17 23  1  0  0  0  0
 18 22  1  0  0  0  0
 18 37  1  0  0  0  0
 20 24  1  0  0  0  0
 20 38  1  0  0  0  0
 21 25  1  0  0  0  0
 21 39  1  0  0  0  0
 22 24  2  0  0  0  0
 22 41  1  0  0  0  0
 23 40  1  0  0  0  0
 24 42  1  0  0  0  0
 25 43  1  0  0  0  0
 25 44  1  0  0  0  0
 25 45  1  0  0  0  0
 26 46  1  0  0  0  0
 26 47  1  0  0  0  0
 26 48  1  0  0  0  0
M  END
> <PUBCHEM_COMPOUND_CID>
5384527

> <PUBCHEM_CONFORMER_RMSD>
0.8

> <PUBCHEM_CONFORMER_DIVERSEORDER>
1
12
7
6
10
2
3
11
8
5
9
4

> <PUBCHEM_MMFF94_PARTIAL_CHARGES>
32
1 -0.43
10 -0.18
11 0.37
12 0.18
13 -0.12
14 -0.05
16 -0.15
17 -0.12
18 -0.15
19 0.71
2 -0.57
20 -0.15
21 -0.29
22 -0.15
23 0.5
24 -0.15
25 0.14
26 0.28
3 -0.57
35 0.15
36 0.27
37 0.15
38 0.15
39 0.15
4 -0.84
40 0.06
41 0.15
42 0.15
5 0.03
6 0.55
8 -0.33
9 0.28

> <PUBCHEM_EFFECTIVE_ROTOR_COUNT>
4.8

> <PUBCHEM_PHARMACOPHORE_FEATURES>
10
1 2 acceptor
1 25 hydrophobe
1 3 acceptor
1 4 cation
1 5 cation
1 5 donor
5 5 8 10 15 16 rings
6 15 16 18 20 22 24 rings
6 4 6 7 9 13 14 rings
6 4 6 8 10 11 12 rings

> <PUBCHEM_HEAVY_ATOM_COUNT>
26

> <PUBCHEM_ATOM_DEF_STEREO_COUNT>
2

> <PUBCHEM_ATOM_UDEF_STEREO_COUNT>
0

> <PUBCHEM_BOND_DEF_STEREO_COUNT>
1

> <PUBCHEM_BOND_UDEF_STEREO_COUNT>
0

> <PUBCHEM_ISOTOPIC_ATOM_COUNT>
0

> <PUBCHEM_COMPONENT_COUNT>
1

> <PUBCHEM_CACTVS_TAUTO_COUNT>
1

> <PUBCHEM_CONFORMER_ID>
0052294F00000001

> <PUBCHEM_MMFF94_ENERGY>
58.702

> <PUBCHEM_FEATURE_SELFOVERLAP>
50.946

> <PUBCHEM_SHAPE_FINGERPRINT>
10076449 9 18336271236484942731
107951 10 17530684273749928475
10835480 77 18410849997605735148
10906281 52 18058463014360990941
11552529 35 17488465350240680278
12011746 2 18409721838382103661
12166972 35 17060047177291324305
12516196 113 17775277249582341840
12633257 1 18058751198208506555
12788726 201 17984978202711766800
13103583 49 17702404972893535586
13540713 4 18196075867133006537
13583140 156 18059850727005205726
14790565 3 18052543162116243457
15082195 135 17974275823105267501
15196674 1 18411981382243161436
15788980 27 18334297582768511558
17349148 13 16271923835218179989
17844677 252 18336836376628903716
200 152 17775279439561949524
20775438 99 17051563474942533743
21267235 1 18272090478490365108
21792961 116 18334867082847837126
221490 88 18339363088645941744
22393880 68 18335692879961532938
23559900 14 18340475763805479328
3004659 81 18336543816615681276
335352 9 18341609309318312845
4015057 19 18270669961355448241
4073 2 18040720286150911250
44062 13 18411979186813591183
484989 97 18338791338726836191
4921388 177 17095531715969811891
5104073 3 18412825781461512720
5283173 99 18335698283020205540
59755656 215 18269558252500476694
59755656 520 16660360368304608491
70251023 43 18049719913046259867
9709674 26 18269262612230843997

> <PUBCHEM_SHAPE_MULTIPOLES>
507.5
12.98
2.95
1.24
10.44
0.97
-0.61
1.81
3.6
-2.41
0.09
-1.89
0.31
1.17

> <PUBCHEM_SHAPE_SELFOVERLAP>
1110.262

> <PUBCHEM_SHAPE_VOLUME>
272.7

> <PUBCHEM_COORDINATE_TYPE>
2
5
10

$$$$
