3000341
  -OEChem-09142002383D

 55 58  0     1  0  0  0  0  0999 V2000
   -2.2413    2.7393    0.6888 O   0  0  0  0  0  0  0  0  0  0  0  0
   -4.8031    0.1486   -1.8115 O   0  0  0  0  0  0  0  0  0  0  0  0
   -3.1045    1.2487    2.2129 O   0  0  0  0  0  0  0  0  0  0  0  0
    0.1005   -1.9981   -0.0743 N   0  0  1  0  0  0  0  0  0  0  0  0
    2.1789    1.0374   -0.7656 N   0  0  0  0  0  0  0  0  0  0  0  0
    0.3010   -0.7037   -0.7842 C   0  0  1  0  0  0  0  0  0  0  0  0
   -2.3508   -1.6360    0.0810 C   0  0  1  0  0  0  0  0  0  0  0  0
   -2.1807   -0.2368   -0.5594 C   0  0  2  0  0  0  0  0  0  0  0  0
   -0.7607    0.3097   -0.3275 C   0  0  0  0  0  0  0  0  0  0  0  0
   -1.2147   -2.5664   -0.3929 C   0  0  0  0  0  0  0  0  0  0  0  0
    1.6988   -0.2216   -0.5415 C   0  0  0  0  0  0  0  0  0  0  0  0
    1.1894   -2.9563   -0.3611 C   0  0  0  0  0  0  0  0  0  0  0  0
    2.7443   -1.0132   -0.1142 C   0  0  0  0  0  0  0  0  0  0  0  0
    2.5409   -2.4544    0.2006 C   0  0  0  0  0  0  0  0  0  0  0  0
   -2.4169   -1.6052    1.6168 C   0  0  0  0  0  0  0  0  0  0  0  0
   -3.2227    0.7476   -0.1186 C   0  0  0  0  0  0  0  0  0  0  0  0
    3.9050   -0.1968   -0.0458 C   0  0  0  0  0  0  0  0  0  0  0  0
    3.5230    1.0843   -0.4593 C   0  0  0  0  0  0  0  0  0  0  0  0
   -2.6425   -2.9916    2.1781 C   0  0  0  0  0  0  0  0  0  0  0  0
   -2.8600    1.5873    1.0618 C   0  0  0  0  0  0  0  0  0  0  0  0
   -4.4103    0.8865   -0.7259 C   0  0  0  0  0  0  0  0  0  0  0  0
    5.2468   -0.4173    0.3238 C   0  0  0  0  0  0  0  0  0  0  0  0
    4.4223    2.1550   -0.5209 C   0  0  0  0  0  0  0  0  0  0  0  0
    6.1551    0.6457    0.2677 C   0  0  0  0  0  0  0  0  0  0  0  0
    5.7472    1.9112   -0.1486 C   0  0  0  0  0  0  0  0  0  0  0  0
   -1.8543    3.6115    1.7562 C   0  0  0  0  0  0  0  0  0  0  0  0
   -5.6909    0.8844   -2.6363 C   0  0  0  0  0  0  0  0  0  0  0  0
    0.1966   -0.8632   -1.8674 H   0  0  0  0  0  0  0  0  0  0  0  0
   -3.2962   -2.0604   -0.2860 H   0  0  0  0  0  0  0  0  0  0  0  0
   -2.2779   -0.3696   -1.6476 H   0  0  0  0  0  0  0  0  0  0  0  0
   -0.5811    0.5474    0.7294 H   0  0  0  0  0  0  0  0  0  0  0  0
   -0.6353    1.2455   -0.8884 H   0  0  0  0  0  0  0  0  0  0  0  0
   -1.3230   -3.5648    0.0419 H   0  0  0  0  0  0  0  0  0  0  0  0
   -1.3036   -2.7130   -1.4787 H   0  0  0  0  0  0  0  0  0  0  0  0
    1.2716   -3.1237   -1.4435 H   0  0  0  0  0  0  0  0  0  0  0  0
    0.9764   -3.9276    0.1019 H   0  0  0  0  0  0  0  0  0  0  0  0
    3.3560   -3.0574   -0.2146 H   0  0  0  0  0  0  0  0  0  0  0  0
    2.5532   -2.5815    1.2902 H   0  0  0  0  0  0  0  0  0  0  0  0
   -3.2912   -1.0292    1.9263 H   0  0  0  0  0  0  0  0  0  0  0  0
   -1.5292   -1.1545    2.0712 H   0  0  0  0  0  0  0  0  0  0  0  0
    1.6379    1.8211   -1.1041 H   0  0  0  0  0  0  0  0  0  0  0  0
   -3.4458   -3.5198    1.6545 H   0  0  0  0  0  0  0  0  0  0  0  0
   -1.7355   -3.6022    2.1435 H   0  0  0  0  0  0  0  0  0  0  0  0
   -2.9282   -2.9207    3.2337 H   0  0  0  0  0  0  0  0  0  0  0  0
   -5.1525    1.5969   -0.3850 H   0  0  0  0  0  0  0  0  0  0  0  0
    5.5799   -1.3986    0.6495 H   0  0  0  0  0  0  0  0  0  0  0  0
    4.1066    3.1409   -0.8457 H   0  0  0  0  0  0  0  0  0  0  0  0
    7.1910    0.4804    0.5518 H   0  0  0  0  0  0  0  0  0  0  0  0
    6.4698    2.7225   -0.1853 H   0  0  0  0  0  0  0  0  0  0  0  0
   -1.1365    3.1099    2.4123 H   0  0  0  0  0  0  0  0  0  0  0  0
   -2.7348    3.9342    2.3198 H   0  0  0  0  0  0  0  0  0  0  0  0
   -1.3748    4.4913    1.3190 H   0  0  0  0  0  0  0  0  0  0  0  0
   -5.9144    0.2800   -3.5204 H   0  0  0  0  0  0  0  0  0  0  0  0
   -5.2337    1.8219   -2.9720 H   0  0  0  0  0  0  0  0  0  0  0  0
   -6.6342    1.0855   -2.1165 H   0  0  0  0  0  0  0  0  0  0  0  0
  1 20  1  0  0  0  0
  1 26  1  0  0  0  0
  2 21  1  0  0  0  0
  2 27  1  0  0  0  0
  3 20  2  0  0  0  0
  4  6  1  0  0  0  0
  4 10  1  0  0  0  0
  4 12  1  0  0  0  0
  5 11  1  0  0  0  0
  5 18  1  0  0  0  0
  5 41  1  0  0  0  0
  6  9  1  0  0  0  0
  6 11  1  0  0  0  0
  6 28  1  0  0  0  0
  7  8  1  0  0  0  0
  7 10  1  0  0  0  0
  7 15  1  0  0  0  0
  7 29  1  0  0  0  0
  8  9  1  0  0  0  0
  8 16  1  0  0  0  0
  8 30  1  0  0  0  0
  9 31  1  0  0  0  0
  9 32  1  0  0  0  0
 10 33  1  0  0  0  0
 10 34  1  0  0  0  0
 11 13  2  0  0  0  0
 12 14  1  0  0  0  0
 12 35  1  0  0  0  0
 12 36  1  0  0  0  0
 13 14  1  0  0  0  0
 13 17  1  0  0  0  0
 14 37  1  0  0  0  0
 14 38  1  0  0  0  0
 15 19  1  0  0  0  0
 15 39  1  0  0  0  0
 15 40  1  0  0  0  0
 16 20  1  0  0  0  0
 16 21  2  0  0  0  0
 17 18  1  0  0  0  0
 17 22  2  0  0  0  0
 18 23  2  0  0  0  0
 19 42  1  0  0  0  0
 19 43  1  0  0  0  0
 19 44  1  0  0  0  0
 21 45  1  0  0  0  0
 22 24  1  0  0  0  0
 22 46  1  0  0  0  0
 23 25  1  0  0  0  0
 23 47  1  0  0  0  0
 24 25  2  0  0  0  0
 24 48  1  0  0  0  0
 25 49  1  0  0  0  0
 26 50  1  0  0  0  0
 26 51  1  0  0  0  0
 26 52  1  0  0  0  0
 27 53  1  0  0  0  0
 27 54  1  0  0  0  0
 27 55  1  0  0  0  0
M  END
> <PUBCHEM_COMPOUND_CID>
3000341

> <PUBCHEM_CONFORMER_RMSD>
0.8

> <PUBCHEM_CONFORMER_DIVERSEORDER>
1
6
11
9
12
4
10
7
8
18
2
14
17
13
16
3
5
15

> <PUBCHEM_MMFF94_PARTIAL_CHARGES>
28
1 -0.43
10 0.27
11 -0.33
12 0.27
13 -0.18
14 0.18
16 -0.12
18 -0.15
2 -0.36
20 0.71
21 -0.07
22 -0.15
23 -0.15
24 -0.15
25 -0.15
26 0.28
27 0.28
3 -0.57
4 -0.81
41 0.27
45 0.15
46 0.15
47 0.15
48 0.15
49 0.15
5 0.03
6 0.45
8 0.14

> <PUBCHEM_EFFECTIVE_ROTOR_COUNT>
6.2

> <PUBCHEM_PHARMACOPHORE_FEATURES>
10
1 19 hydrophobe
1 2 acceptor
1 3 acceptor
1 4 cation
1 5 cation
1 5 donor
5 5 11 13 17 18 rings
6 17 18 22 23 24 25 rings
6 4 6 11 12 13 14 rings
6 4 6 7 8 9 10 rings

> <PUBCHEM_HEAVY_ATOM_COUNT>
27

> <PUBCHEM_ATOM_DEF_STEREO_COUNT>
3

> <PUBCHEM_ATOM_UDEF_STEREO_COUNT>
0

> <PUBCHEM_BOND_DEF_STEREO_COUNT>
1

> <PUBCHEM_BOND_UDEF_STEREO_COUNT>
0

> <PUBCHEM_ISOTOPIC_ATOM_COUNT>
0

> <PUBCHEM_COMPONENT_COUNT>
1

> <PUBCHEM_CACTVS_TAUTO_COUNT>
1

> <PUBCHEM_CONFORMER_ID>
002DC81500000001

> <PUBCHEM_MMFF94_ENERGY>
68.3073

> <PUBCHEM_FEATURE_SELFOVERLAP>
50.942

> <PUBCHEM_SHAPE_FINGERPRINT>
10366900 7 18201714059316939112
10670039 82 18270977790742065524
11135609 187 18410565172601961045
11513181 2 17701546103945923238
12107183 9 18194401083707245330
12293681 160 18341598297285993937
12390115 104 18267604540480418868
12403259 118 17604990497867658620
12403260 363 18125711305868288847
12596602 18 17749951184726539224
12633257 1 17822282454064834946
12788726 201 18201711817592021353
13140716 1 18267317601704388833
13583140 156 17240488004539535961
14178342 30 18188508929025652378
14251764 30 11887377154045541197
14739800 52 18058709378760305264
14767858 380 18201140123401359181
14790565 3 18336558209183446420
14931854 50 18272928310677762324
15420108 30 16397458020040862497
15840311 113 17979364063052002045
17492 54 18129926937240274805
20739085 24 17967820453426609300
21033648 144 18334012765806208711
21033648 29 18267293421571093504
21033650 10 17416712209860904588
21095088 737 18272651246885191185
21859007 373 16662310815811352614
21864079 5 18127139571419957529
22182313 1 18266481891294899942
22956985 138 16387349771265298107
23559900 14 18340194297534786737
3117164 225 18262236595975920066
335352 9 18409162200544845414
3633792 109 18263630776286994541
392239 28 18268729366059895083
469060 322 18052285021680313947
474 4 18409727318296116926
5081480 168 16912890637395454676
5104073 3 18261390096628760000
6371009 1 18341600504625182944
9981440 41 18412826863192319451

> <PUBCHEM_SHAPE_MULTIPOLES>
528.08
12.04
3.54
1.69
9.21
0.25
-0.23
-6.56
3.07
-1.22
-1.68
-3.5
-0.4
0.32

> <PUBCHEM_SHAPE_SELFOVERLAP>
1135.785

> <PUBCHEM_SHAPE_VOLUME>
290.2

> <PUBCHEM_COORDINATE_TYPE>
2
5
10

$$$$
