44583694
  -OEChem-09142002483D

102107  0     1  0  0  0  0  0999 V2000
   -3.4412    5.1948   -0.5832 O   0  0  0  0  0  0  0  0  0  0  0  0
    5.8363   -0.5359    2.7119 O   0  0  0  0  0  0  0  0  0  0  0  0
    5.5408    1.3059    1.4017 O   0  0  0  0  0  0  0  0  0  0  0  0
    0.8882   -2.6965    1.2723 O   0  0  0  0  0  0  0  0  0  0  0  0
   -6.0449   -1.1349   -1.0614 O   0  0  0  0  0  0  0  0  0  0  0  0
   -7.3987   -3.4052   -0.2005 O   0  0  0  0  0  0  0  0  0  0  0  0
    0.8018    1.1916    0.9286 C   0  0  2  0  0  0  0  0  0  0  0  0
    0.4298    2.0955   -0.3087 C   0  0  1  0  0  0  0  0  0  0  0  0
   -0.8551    3.0366   -0.1987 C   0  0  2  0  0  0  0  0  0  0  0  0
    1.8688    0.0489    0.4301 C   0  0  1  0  0  0  0  0  0  0  0  0
   -2.0360    2.1929    0.3902 C   0  0  1  0  0  0  0  0  0  0  0  0
   -0.4856    0.5472    1.5097 C   0  0  0  0  0  0  0  0  0  0  0  0
    3.0003    0.6746   -0.4107 C   0  0  0  0  0  0  0  0  0  0  0  0
   -1.6395    1.5265    1.7225 C   0  0  0  0  0  0  0  0  0  0  0  0
   -3.4480    2.9045    0.4156 C   0  0  0  0  0  0  0  0  0  0  0  0
    4.3141   -0.0918   -0.6446 C   0  0  1  0  0  0  0  0  0  0  0  0
    1.6921    2.8085   -0.8347 C   0  0  0  0  0  0  0  0  0  0  0  0
    2.4801   -0.6863    1.6587 C   0  0  0  0  0  0  0  0  0  0  0  0
    4.7994   -0.8737    0.6148 C   0  0  1  0  0  0  0  0  0  0  0  0
   -1.2417    3.5057   -1.6468 C   0  0  0  0  0  0  0  0  0  0  0  0
    3.6487   -1.6121    1.3245 C   0  0  0  0  0  0  0  0  0  0  0  0
    1.4458    2.0440    2.0640 C   0  0  0  0  0  0  0  0  0  0  0  0
    1.1689   -1.0256   -0.4518 C   0  0  0  0  0  0  0  0  0  0  0  0
    2.8888    1.9136   -0.9319 C   0  0  0  0  0  0  0  0  0  0  0  0
   -3.6509    3.8097   -0.8443 C   0  0  2  0  0  0  0  0  0  0  0  0
   -0.5869    4.3138    0.6337 C   0  0  0  0  0  0  0  0  0  0  0  0
   -2.7319    3.4090   -1.9934 C   0  0  0  0  0  0  0  0  0  0  0  0
    4.3606   -1.0117   -1.9059 C   0  0  2  0  0  0  0  0  0  0  0  0
    5.9053   -1.9072    0.2779 C   0  0  0  0  0  0  0  0  0  0  0  0
    5.8301   -1.4385   -2.2132 C   0  0  1  0  0  0  0  0  0  0  0  0
   -4.5322    1.7890    0.3401 C   0  0  0  0  0  0  0  0  0  0  0  0
   -3.7203    3.6768    1.7236 C   0  0  0  0  0  0  0  0  0  0  0  0
    6.7098   -1.5048   -0.9518 C   0  0  0  0  0  0  0  0  0  0  0  0
    5.4223    0.1045    1.5912 C   0  0  0  0  0  0  0  0  0  0  0  0
    3.7391   -0.3697   -3.1544 C   0  0  0  0  0  0  0  0  0  0  0  0
    0.3922   -1.9992    0.3915 C   0  0  0  0  0  0  0  0  0  0  0  0
    5.8652   -2.7822   -2.9546 C   0  0  0  0  0  0  0  0  0  0  0  0
   -1.0647   -2.0556    0.0702 C   0  0  0  0  0  0  0  0  0  0  0  0
   -1.8778   -2.8806    0.7443 C   0  0  0  0  0  0  0  0  0  0  0  0
   -3.3239   -3.0154    0.4952 C   0  0  0  0  0  0  0  0  0  0  0  0
   -4.0135   -2.0031   -0.1723 C   0  0  0  0  0  0  0  0  0  0  0  0
   -4.0033   -4.1545    0.9270 C   0  0  0  0  0  0  0  0  0  0  0  0
   -5.3824   -2.1301   -0.4082 C   0  0  0  0  0  0  0  0  0  0  0  0
   -5.3723   -4.2813    0.6912 C   0  0  0  0  0  0  0  0  0  0  0  0
   -6.0619   -3.2691    0.0236 C   0  0  0  0  0  0  0  0  0  0  0  0
   -6.1158   -1.2284   -2.4830 C   0  0  0  0  0  0  0  0  0  0  0  0
    0.1463    1.3919   -1.1023 H   0  0  0  0  0  0  0  0  0  0  0  0
   -2.1602    1.3594   -0.3208 H   0  0  0  0  0  0  0  0  0  0  0  0
   -0.2955   -0.0271    2.4208 H   0  0  0  0  0  0  0  0  0  0  0  0
   -0.9118   -0.0729    0.7587 H   0  0  0  0  0  0  0  0  0  0  0  0
   -2.4830    0.9532    2.1228 H   0  0  0  0  0  0  0  0  0  0  0  0
   -1.3817    2.2627    2.4888 H   0  0  0  0  0  0  0  0  0  0  0  0
    5.0711    0.6803   -0.8582 H   0  0  0  0  0  0  0  0  0  0  0  0
    1.9768    3.6498   -0.1966 H   0  0  0  0  0  0  0  0  0  0  0  0
    1.4974    3.2209   -1.8309 H   0  0  0  0  0  0  0  0  0  0  0  0
    1.7605   -1.1276    2.3498 H   0  0  0  0  0  0  0  0  0  0  0  0
    2.9338    0.0751    2.3055 H   0  0  0  0  0  0  0  0  0  0  0  0
   -0.7128    2.9162   -2.4059 H   0  0  0  0  0  0  0  0  0  0  0  0
   -0.9046    4.5382   -1.8087 H   0  0  0  0  0  0  0  0  0  0  0  0
    3.9948   -2.0801    2.2550 H   0  0  0  0  0  0  0  0  0  0  0  0
    3.3038   -2.4404    0.6958 H   0  0  0  0  0  0  0  0  0  0  0  0
    2.4590    2.3764    1.8198 H   0  0  0  0  0  0  0  0  0  0  0  0
    1.5036    1.4769    3.0002 H   0  0  0  0  0  0  0  0  0  0  0  0
    0.8733    2.9337    2.3092 H   0  0  0  0  0  0  0  0  0  0  0  0
    0.5450   -0.5824   -1.2314 H   0  0  0  0  0  0  0  0  0  0  0  0
    1.8809   -1.6468   -0.9979 H   0  0  0  0  0  0  0  0  0  0  0  0
    3.7229    2.3326   -1.4912 H   0  0  0  0  0  0  0  0  0  0  0  0
   -4.6904    3.7342   -1.1863 H   0  0  0  0  0  0  0  0  0  0  0  0
    0.3567    4.7953    0.3676 H   0  0  0  0  0  0  0  0  0  0  0  0
   -1.3456    5.0797    0.4670 H   0  0  0  0  0  0  0  0  0  0  0  0
   -0.5826    4.1363    1.7084 H   0  0  0  0  0  0  0  0  0  0  0  0
   -2.9205    4.0468   -2.8660 H   0  0  0  0  0  0  0  0  0  0  0  0
   -2.9645    2.3834   -2.3062 H   0  0  0  0  0  0  0  0  0  0  0  0
    3.7925   -1.9244   -1.6938 H   0  0  0  0  0  0  0  0  0  0  0  0
    6.6015   -2.0715    1.1082 H   0  0  0  0  0  0  0  0  0  0  0  0
    5.4567   -2.8898    0.0800 H   0  0  0  0  0  0  0  0  0  0  0  0
    6.2883   -0.6949   -2.8796 H   0  0  0  0  0  0  0  0  0  0  0  0
   -4.4587    1.0837    1.1733 H   0  0  0  0  0  0  0  0  0  0  0  0
   -5.5407    2.2183    0.3711 H   0  0  0  0  0  0  0  0  0  0  0  0
   -4.4491    1.2211   -0.5925 H   0  0  0  0  0  0  0  0  0  0  0  0
   -4.6964    4.1747    1.6819 H   0  0  0  0  0  0  0  0  0  0  0  0
   -2.9721    4.4477    1.9186 H   0  0  0  0  0  0  0  0  0  0  0  0
   -3.7421    3.0112    2.5931 H   0  0  0  0  0  0  0  0  0  0  0  0
    7.5442   -2.2014   -1.0963 H   0  0  0  0  0  0  0  0  0  0  0  0
    7.1663   -0.5223   -0.7755 H   0  0  0  0  0  0  0  0  0  0  0  0
    4.2359    0.5740   -3.4032 H   0  0  0  0  0  0  0  0  0  0  0  0
    2.6722   -0.1714   -3.0148 H   0  0  0  0  0  0  0  0  0  0  0  0
    3.8225   -1.0282   -4.0243 H   0  0  0  0  0  0  0  0  0  0  0  0
   -3.6287    5.6842   -1.4022 H   0  0  0  0  0  0  0  0  0  0  0  0
    5.4447   -3.5867   -2.3421 H   0  0  0  0  0  0  0  0  0  0  0  0
    6.8946   -3.0565   -3.2095 H   0  0  0  0  0  0  0  0  0  0  0  0
    5.2998   -2.7388   -3.8901 H   0  0  0  0  0  0  0  0  0  0  0  0
   -1.4094   -1.4640   -0.7711 H   0  0  0  0  0  0  0  0  0  0  0  0
    6.2429    0.0811    3.3570 H   0  0  0  0  0  0  0  0  0  0  0  0
   -1.4862   -3.5028    1.5455 H   0  0  0  0  0  0  0  0  0  0  0  0
   -3.5211   -1.0948   -0.5071 H   0  0  0  0  0  0  0  0  0  0  0  0
   -3.4816   -4.9538    1.4477 H   0  0  0  0  0  0  0  0  0  0  0  0
   -5.8892   -5.1741    1.0328 H   0  0  0  0  0  0  0  0  0  0  0  0
   -7.6965   -4.2552    0.1666 H   0  0  0  0  0  0  0  0  0  0  0  0
   -5.1121   -1.2010   -2.9188 H   0  0  0  0  0  0  0  0  0  0  0  0
   -6.6322   -2.1453   -2.7843 H   0  0  0  0  0  0  0  0  0  0  0  0
   -6.6816   -0.3697   -2.8546 H   0  0  0  0  0  0  0  0  0  0  0  0
  1 25  1  0  0  0  0
  1 89  1  0  0  0  0
  2 34  1  0  0  0  0
  2 94  1  0  0  0  0
  3 34  2  0  0  0  0
  4 36  2  0  0  0  0
  5 43  1  0  0  0  0
  5 46  1  0  0  0  0
  6 45  1  0  0  0  0
  6 99  1  0  0  0  0
  7  8  1  0  0  0  0
  7 10  1  0  0  0  0
  7 12  1  0  0  0  0
  7 22  1  0  0  0  0
  8  9  1  0  0  0  0
  8 17  1  0  0  0  0
  8 47  1  0  0  0  0
  9 11  1  0  0  0  0
  9 20  1  0  0  0  0
  9 26  1  0  0  0  0
 10 13  1  0  0  0  0
 10 18  1  0  0  0  0
 10 23  1  0  0  0  0
 11 14  1  0  0  0  0
 11 15  1  0  0  0  0
 11 48  1  0  0  0  0
 12 14  1  0  0  0  0
 12 49  1  0  0  0  0
 12 50  1  0  0  0  0
 13 16  1  0  0  0  0
 13 24  2  0  0  0  0
 14 51  1  0  0  0  0
 14 52  1  0  0  0  0
 15 25  1  0  0  0  0
 15 31  1  0  0  0  0
 15 32  1  0  0  0  0
 16 19  1  0  0  0  0
 16 28  1  0  0  0  0
 16 53  1  0  0  0  0
 17 24  1  0  0  0  0
 17 54  1  0  0  0  0
 17 55  1  0  0  0  0
 18 21  1  0  0  0  0
 18 56  1  0  0  0  0
 18 57  1  0  0  0  0
 19 21  1  0  0  0  0
 19 29  1  0  0  0  0
 19 34  1  0  0  0  0
 20 27  1  0  0  0  0
 20 58  1  0  0  0  0
 20 59  1  0  0  0  0
 21 60  1  0  0  0  0
 21 61  1  0  0  0  0
 22 62  1  0  0  0  0
 22 63  1  0  0  0  0
 22 64  1  0  0  0  0
 23 36  1  0  0  0  0
 23 65  1  0  0  0  0
 23 66  1  0  0  0  0
 24 67  1  0  0  0  0
 25 27  1  0  0  0  0
 25 68  1  0  0  0  0
 26 69  1  0  0  0  0
 26 70  1  0  0  0  0
 26 71  1  0  0  0  0
 27 72  1  0  0  0  0
 27 73  1  0  0  0  0
 28 30  1  0  0  0  0
 28 35  1  0  0  0  0
 28 74  1  0  0  0  0
 29 33  1  0  0  0  0
 29 75  1  0  0  0  0
 29 76  1  0  0  0  0
 30 33  1  0  0  0  0
 30 37  1  0  0  0  0
 30 77  1  0  0  0  0
 31 78  1  0  0  0  0
 31 79  1  0  0  0  0
 31 80  1  0  0  0  0
 32 81  1  0  0  0  0
 32 82  1  0  0  0  0
 32 83  1  0  0  0  0
 33 84  1  0  0  0  0
 33 85  1  0  0  0  0
 35 86  1  0  0  0  0
 35 87  1  0  0  0  0
 35 88  1  0  0  0  0
 36 38  1  0  0  0  0
 37 90  1  0  0  0  0
 37 91  1  0  0  0  0
 37 92  1  0  0  0  0
 38 39  2  0  0  0  0
 38 93  1  0  0  0  0
 39 40  1  0  0  0  0
 39 95  1  0  0  0  0
 40 41  2  0  0  0  0
 40 42  1  0  0  0  0
 41 43  1  0  0  0  0
 41 96  1  0  0  0  0
 42 44  2  0  0  0  0
 42 97  1  0  0  0  0
 43 45  2  0  0  0  0
 44 45  1  0  0  0  0
 44 98  1  0  0  0  0
 46100  1  0  0  0  0
 46101  1  0  0  0  0
 46102  1  0  0  0  0
M  END
> <PUBCHEM_COMPOUND_CID>
44583694

> <PUBCHEM_CONFORMER_RMSD>
1.2

> <PUBCHEM_CONFORMER_DIVERSEORDER>
1
7
11
10
4
5
12
2
9
6
3
8

> <PUBCHEM_MMFF94_PARTIAL_CHARGES>
34
1 -0.68
10 0.14
13 -0.28
16 0.14
17 0.14
19 0.06
2 -0.65
23 0.06
24 -0.29
25 0.28
3 -0.57
34 0.66
36 0.49
38 -0.14
39 -0.18
4 -0.57
40 0.03
41 -0.15
42 -0.15
43 0.08
44 -0.15
45 0.08
46 0.28
5 -0.36
6 -0.53
67 0.15
89 0.4
93 0.15
94 0.5
95 0.15
96 0.15
97 0.15
98 0.15
99 0.45

> <PUBCHEM_EFFECTIVE_ROTOR_COUNT>
8.6

> <PUBCHEM_PHARMACOPHORE_FEATURES>
15
1 1 acceptor
1 1 donor
1 2 acceptor
1 3 acceptor
1 4 acceptor
1 5 acceptor
1 6 donor
3 15 31 32 hydrophobe
3 2 3 34 anion
6 10 13 16 18 19 21 rings
6 16 19 28 29 30 33 rings
6 40 41 42 43 44 45 rings
6 7 8 10 13 17 24 rings
6 7 8 9 11 12 14 rings
6 9 11 15 20 25 27 rings

> <PUBCHEM_HEAVY_ATOM_COUNT>
46

> <PUBCHEM_ATOM_DEF_STEREO_COUNT>
10

> <PUBCHEM_ATOM_UDEF_STEREO_COUNT>
0

> <PUBCHEM_BOND_DEF_STEREO_COUNT>
1

> <PUBCHEM_BOND_UDEF_STEREO_COUNT>
0

> <PUBCHEM_ISOTOPIC_ATOM_COUNT>
0

> <PUBCHEM_COMPONENT_COUNT>
1

> <PUBCHEM_CACTVS_TAUTO_COUNT>
11

> <PUBCHEM_CONFORMER_ID>
02A84B0E00000001

> <PUBCHEM_MMFF94_ENERGY>
221.611

> <PUBCHEM_FEATURE_SELFOVERLAP>
76.247

> <PUBCHEM_SHAPE_FINGERPRINT>
10169797 241 18127691736652411345
10190206 1 17900566741280746396
10290309 65 17832428592841976669
10675989 125 17686068592189486765
11331351 85 18130793425249088091
11578080 2 12324253780158739878
11991303 11 18044670701720804207
12788726 201 18262527012720566882
13782708 43 17703799080929430278
13811026 1 18412820292372027306
14068700 675 18187921815401308483
14294032 229 18263372386501315921
15001296 14 18333729156146647760
15400415 2 17616524060995054461
15968369 153 18201429341660921453
17909252 39 18051984915636970249
18365409 1 18265059037771003789
19311894 1 18267878193652166717
19319366 153 17546986552377242781
21703447 108 18266740362822087168
21792965 302 18041846250324118692
23536364 44 18408599275838975399
23576562 1 18188505622428654820
244849 19 17561072580434058626
24771750 20 16748760317531164517
25223398 141 18188755181081199977
3103668 31 18334856109285355077
4066623 53 18337957908263953775
4435113 14 18060421279124633132
44880168 125 18125748723591820731
463206 1 18409453596511140921
46939830 39 17676198100729611725
508706 21 18412267207626331543
9961470 85 17978211773689284058

> <PUBCHEM_SHAPE_MULTIPOLES>
911.44
15.9
6.47
2.35
1.81
2.46
-0.95
-15.58
-4.5
-12.45
-0.27
2.8
-0.07
1.69

> <PUBCHEM_SHAPE_SELFOVERLAP>
1953.49

> <PUBCHEM_SHAPE_VOLUME>
497

> <PUBCHEM_COORDINATE_TYPE>
2
5
10

$$$$
