156875
  -OEChem-09142002563D

 46 49  0     1  0  0  0  0  0999 V2000
    0.1000   -0.4740    0.3724 O   0  0  0  0  0  0  0  0  0  0  0  0
    0.7610    2.3245    0.3327 O   0  0  0  0  0  0  0  0  0  0  0  0
    2.0532   -2.3257    0.0440 O   0  0  0  0  0  0  0  0  0  0  0  0
   -1.2215    4.1278   -0.2259 O   0  0  0  0  0  0  0  0  0  0  0  0
    3.3595    3.0658    0.0862 O   0  0  0  0  0  0  0  0  0  0  0  0
   -4.5072   -1.0722   -1.9099 O   0  0  0  0  0  0  0  0  0  0  0  0
   -6.0429   -1.5451    0.3584 O   0  0  0  0  0  0  0  0  0  0  0  0
    2.7112   -4.5135   -0.1177 O   0  0  0  0  0  0  0  0  0  0  0  0
   -0.7989    0.5379    0.8586 C   0  0  1  0  0  0  0  0  0  0  0  0
   -0.5746    1.8496    0.0892 C   0  0  1  0  0  0  0  0  0  0  0  0
   -2.1994   -0.0183    0.7213 C   0  0  0  0  0  0  0  0  0  0  0  0
    1.3788   -0.0178    0.2163 C   0  0  0  0  0  0  0  0  0  0  0  0
    1.7004    1.3377    0.2070 C   0  0  0  0  0  0  0  0  0  0  0  0
   -1.5149    2.9677    0.5307 C   0  0  0  0  0  0  0  0  0  0  0  0
    2.3978   -0.9565    0.0508 C   0  0  0  0  0  0  0  0  0  0  0  0
    3.0310    1.7428    0.0775 C   0  0  0  0  0  0  0  0  0  0  0  0
    3.7283   -0.5692   -0.0945 C   0  0  0  0  0  0  0  0  0  0  0  0
   -2.7194   -0.2938   -0.5432 C   0  0  0  0  0  0  0  0  0  0  0  0
   -2.9697   -0.2555    1.8595 C   0  0  0  0  0  0  0  0  0  0  0  0
    4.0435    0.7915   -0.0753 C   0  0  0  0  0  0  0  0  0  0  0  0
   -4.0103   -0.8069   -0.6696 C   0  0  0  0  0  0  0  0  0  0  0  0
   -4.2607   -0.7683    1.7330 C   0  0  0  0  0  0  0  0  0  0  0  0
    4.7463   -1.5937   -0.2563 C   0  0  0  0  0  0  0  0  0  0  0  0
   -4.7810   -1.0442    0.4686 C   0  0  0  0  0  0  0  0  0  0  0  0
    4.4074   -2.8851   -0.2640 C   0  0  0  0  0  0  0  0  0  0  0  0
    3.0088   -3.3242   -0.1104 C   0  0  0  0  0  0  0  0  0  0  0  0
    3.3798    3.7360   -1.1722 C   0  0  0  0  0  0  0  0  0  0  0  0
   -5.2065   -0.0172   -2.5672 C   0  0  0  0  0  0  0  0  0  0  0  0
   -0.5645    0.6890    1.9224 H   0  0  0  0  0  0  0  0  0  0  0  0
   -0.6628    1.7091   -0.9971 H   0  0  0  0  0  0  0  0  0  0  0  0
   -2.5648    2.7144    0.3619 H   0  0  0  0  0  0  0  0  0  0  0  0
   -1.3765    3.2132    1.5889 H   0  0  0  0  0  0  0  0  0  0  0  0
   -2.1250   -0.1209   -1.4367 H   0  0  0  0  0  0  0  0  0  0  0  0
   -2.5783   -0.0452    2.8512 H   0  0  0  0  0  0  0  0  0  0  0  0
    5.0754    1.1191   -0.1811 H   0  0  0  0  0  0  0  0  0  0  0  0
   -4.8561   -0.9507    2.6235 H   0  0  0  0  0  0  0  0  0  0  0  0
    5.7819   -1.2930   -0.3705 H   0  0  0  0  0  0  0  0  0  0  0  0
   -0.2866    4.3491   -0.0749 H   0  0  0  0  0  0  0  0  0  0  0  0
    5.1624   -3.6542   -0.3845 H   0  0  0  0  0  0  0  0  0  0  0  0
    3.6477    4.7819   -0.9989 H   0  0  0  0  0  0  0  0  0  0  0  0
    2.3927    3.7017   -1.6441 H   0  0  0  0  0  0  0  0  0  0  0  0
    4.1282    3.2879   -1.8334 H   0  0  0  0  0  0  0  0  0  0  0  0
   -6.2275   -1.7143   -0.5815 H   0  0  0  0  0  0  0  0  0  0  0  0
   -5.5709   -0.3937   -3.5269 H   0  0  0  0  0  0  0  0  0  0  0  0
   -6.0641    0.3114   -1.9716 H   0  0  0  0  0  0  0  0  0  0  0  0
   -4.5348    0.8267   -2.7545 H   0  0  0  0  0  0  0  0  0  0  0  0
  1  9  1  0  0  0  0
  1 12  1  0  0  0  0
  2 10  1  0  0  0  0
  2 13  1  0  0  0  0
  3 15  1  0  0  0  0
  3 26  1  0  0  0  0
  4 14  1  0  0  0  0
  4 38  1  0  0  0  0
  5 16  1  0  0  0  0
  5 27  1  0  0  0  0
  6 21  1  0  0  0  0
  6 28  1  0  0  0  0
  7 24  1  0  0  0  0
  7 43  1  0  0  0  0
  8 26  2  0  0  0  0
  9 10  1  0  0  0  0
  9 11  1  0  0  0  0
  9 29  1  0  0  0  0
 10 14  1  0  0  0  0
 10 30  1  0  0  0  0
 11 18  2  0  0  0  0
 11 19  1  0  0  0  0
 12 13  1  0  0  0  0
 12 15  2  0  0  0  0
 13 16  2  0  0  0  0
 14 31  1  0  0  0  0
 14 32  1  0  0  0  0
 15 17  1  0  0  0  0
 16 20  1  0  0  0  0
 17 20  2  0  0  0  0
 17 23  1  0  0  0  0
 18 21  1  0  0  0  0
 18 33  1  0  0  0  0
 19 22  2  0  0  0  0
 19 34  1  0  0  0  0
 20 35  1  0  0  0  0
 21 24  2  0  0  0  0
 22 24  1  0  0  0  0
 22 36  1  0  0  0  0
 23 25  2  0  0  0  0
 23 37  1  0  0  0  0
 25 26  1  0  0  0  0
 25 39  1  0  0  0  0
 27 40  1  0  0  0  0
 27 41  1  0  0  0  0
 27 42  1  0  0  0  0
 28 44  1  0  0  0  0
 28 45  1  0  0  0  0
 28 46  1  0  0  0  0
M  END
> <PUBCHEM_COMPOUND_CID>
156875

> <PUBCHEM_CONFORMER_RMSD>
0.8

> <PUBCHEM_CONFORMER_DIVERSEORDER>
1
8
11
6
4
12
5
2
10
3
7
9

> <PUBCHEM_MMFF94_PARTIAL_CHARGES>
36
1 -0.36
10 0.28
11 -0.14
12 0.08
13 0.08
14 0.28
15 0.08
16 0.08
17 0.03
18 -0.15
19 -0.15
2 -0.36
20 -0.15
21 0.08
22 -0.15
23 -0.18
24 0.08
25 -0.14
26 0.71
27 0.28
28 0.28
3 -0.23
33 0.15
34 0.15
35 0.15
36 0.15
37 0.15
38 0.4
39 0.15
4 -0.68
43 0.45
5 -0.36
6 -0.36
7 -0.53
8 -0.57
9 0.42

> <PUBCHEM_EFFECTIVE_ROTOR_COUNT>
4.8

> <PUBCHEM_PHARMACOPHORE_FEATURES>
12
1 1 acceptor
1 2 acceptor
1 4 acceptor
1 4 donor
1 5 acceptor
1 6 acceptor
1 7 donor
1 8 acceptor
6 1 2 9 10 12 13 rings
6 11 18 19 21 22 24 rings
6 12 13 15 16 17 20 rings
6 3 15 17 23 25 26 rings

> <PUBCHEM_HEAVY_ATOM_COUNT>
28

> <PUBCHEM_ATOM_DEF_STEREO_COUNT>
2

> <PUBCHEM_ATOM_UDEF_STEREO_COUNT>
0

> <PUBCHEM_BOND_DEF_STEREO_COUNT>
0

> <PUBCHEM_BOND_UDEF_STEREO_COUNT>
0

> <PUBCHEM_ISOTOPIC_ATOM_COUNT>
0

> <PUBCHEM_COMPONENT_COUNT>
1

> <PUBCHEM_CACTVS_TAUTO_COUNT>
3

> <PUBCHEM_CONFORMER_ID>
000264CB00000001

> <PUBCHEM_MMFF94_ENERGY>
113.0039

> <PUBCHEM_FEATURE_SELFOVERLAP>
60.979

> <PUBCHEM_SHAPE_FINGERPRINT>
10090160 65 18338236089100981232
10254770 206 16243490103805825347
10622 236 17702358802422911271
11135926 11 18267305507012965284
12107183 9 17982750584070126689
12236239 1 17774731965003112219
12553582 1 18412547591401988514
13140716 1 18266463303229759138
13533116 47 18272937167464439259
13544653 18 18409174285522259371
13690498 29 18124897667638275174
13782708 43 17676488389106404971
13911987 19 17902525000979599020
14767858 380 18264512645417538798
14790565 3 17689170318907917768
17138139 8 17270299226565211311
17357779 13 18261108556552539933
17492 89 18339645516778786234
17818456 19 17558287431154574321
1813 80 18200048290874473005
20511986 3 17703783739226464945
20645477 70 18334294309512841402
20775438 99 17759476124550327309
20775530 9 18122633756090999042
21033650 10 16370725890303343965
21285901 2 17822002155618908981
21703447 108 18339630179650727440
221490 88 18337116657525526304
22393880 68 17821721737283677099
23557571 272 17095522920214373631
23559900 14 18335137592219036448
314194 84 18271526511136187723
34797466 226 16878231973408910727
3882209 13 17179371427599180987
46194498 28 17605553460816777693
463206 1 18341893038578301719
5104073 3 18125158239399566042
59682541 52 18195782194913107407
602551 16 15267337461494449615
70251023 43 18410013200046358763
7164475 11 18410014303890435220
9709674 26 18335427833060422560

> <PUBCHEM_SHAPE_MULTIPOLES>
529.27
11.45
4.53
1.37
8.74
1.12
0.51
-6.56
2.7
-6.22
0.64
2.77
-0.05
-0.21

> <PUBCHEM_SHAPE_SELFOVERLAP>
1166.063

> <PUBCHEM_SHAPE_VOLUME>
284.2

> <PUBCHEM_COORDINATE_TYPE>
2
5
10

$$$$
