3084765
  -OEChem-09142002413D

 42 46  0     1  0  0  0  0  0999 V2000
   -1.8984   -3.4234    0.1017 O   0  0  0  0  0  0  0  0  0  0  0  0
   -4.1451    3.2303    0.7467 O   0  0  0  0  0  0  0  0  0  0  0  0
   -0.2551   -1.7623    0.0720 N   0  0  0  0  0  0  0  0  0  0  0  0
    1.9546    1.1808    0.2952 N   0  0  0  0  0  0  0  0  0  0  0  0
   -5.0031   -0.6709   -0.0059 N   0  0  0  0  0  0  0  0  0  0  0  0
    2.4617   -0.9272   -0.1910 C   0  0  0  0  0  0  0  0  0  0  0  0
    2.1697   -2.3517   -0.4851 C   0  0  0  0  0  0  0  0  0  0  0  0
    1.4241   -0.0569    0.0615 C   0  0  0  0  0  0  0  0  0  0  0  0
    0.8468   -2.7541    0.1962 C   0  0  0  0  0  0  0  0  0  0  0  0
    0.0442   -0.3876    0.0865 C   0  0  0  0  0  0  0  0  0  0  0  0
    3.6761   -0.1978   -0.1172 C   0  0  0  0  0  0  0  0  0  0  0  0
    3.3308    1.1231    0.1906 C   0  0  0  0  0  0  0  0  0  0  0  0
   -0.9165    0.5494    0.0727 C   0  0  0  0  0  0  0  0  0  0  0  0
   -2.3193    0.1441    0.0494 C   0  0  0  0  0  0  0  0  0  0  0  0
   -1.5793   -2.2369    0.0708 C   0  0  0  0  0  0  0  0  0  0  0  0
   -2.6480   -1.2108    0.0415 C   0  0  0  0  0  0  0  0  0  0  0  0
   -3.3434    1.0903    0.0288 C   0  0  0  0  0  0  0  0  0  0  0  0
    5.0373   -0.5224   -0.2808 C   0  0  0  0  0  0  0  0  0  0  0  0
    4.2864    2.1342    0.3444 C   0  0  0  0  0  0  0  0  0  0  0  0
   -3.0981    2.5617    0.0339 C   0  0  1  0  0  0  0  0  0  0  0  0
   -3.9908   -1.5667    0.0147 C   0  0  0  0  0  0  0  0  0  0  0  0
    6.0018    0.4802   -0.1299 C   0  0  0  0  0  0  0  0  0  0  0  0
   -4.6530    0.6345    0.0019 C   0  0  0  0  0  0  0  0  0  0  0  0
    5.6301    1.7871    0.1781 C   0  0  0  0  0  0  0  0  0  0  0  0
   -3.0137    3.1527   -1.3765 C   0  0  0  0  0  0  0  0  0  0  0  0
    2.0738   -2.4754   -1.5706 H   0  0  0  0  0  0  0  0  0  0  0  0
    2.9790   -3.0054   -0.1436 H   0  0  0  0  0  0  0  0  0  0  0  0
    0.5171   -3.7234   -0.1945 H   0  0  0  0  0  0  0  0  0  0  0  0
    1.0097   -2.8872    1.2743 H   0  0  0  0  0  0  0  0  0  0  0  0
    1.4367    2.0194    0.5194 H   0  0  0  0  0  0  0  0  0  0  0  0
   -0.6623    1.5999    0.0384 H   0  0  0  0  0  0  0  0  0  0  0  0
    5.3426   -1.5369   -0.5208 H   0  0  0  0  0  0  0  0  0  0  0  0
    3.9988    3.1526    0.5835 H   0  0  0  0  0  0  0  0  0  0  0  0
   -2.1942    2.8128    0.5947 H   0  0  0  0  0  0  0  0  0  0  0  0
   -4.3117   -2.6034    0.0089 H   0  0  0  0  0  0  0  0  0  0  0  0
    7.0532    0.2349   -0.2547 H   0  0  0  0  0  0  0  0  0  0  0  0
   -5.5007    1.3121   -0.0301 H   0  0  0  0  0  0  0  0  0  0  0  0
    6.3962    2.5501    0.2907 H   0  0  0  0  0  0  0  0  0  0  0  0
   -3.9565    3.0147   -1.9182 H   0  0  0  0  0  0  0  0  0  0  0  0
   -2.2105    2.6910   -1.9592 H   0  0  0  0  0  0  0  0  0  0  0  0
   -2.8339    4.2322   -1.3289 H   0  0  0  0  0  0  0  0  0  0  0  0
   -3.9443    4.1818    0.7407 H   0  0  0  0  0  0  0  0  0  0  0  0
  1 15  2  0  0  0  0
  2 20  1  0  0  0  0
  2 42  1  0  0  0  0
  3  9  1  0  0  0  0
  3 10  1  0  0  0  0
  3 15  1  0  0  0  0
  4  8  1  0  0  0  0
  4 12  1  0  0  0  0
  4 30  1  0  0  0  0
  5 21  1  0  0  0  0
  5 23  2  0  0  0  0
  6  7  1  0  0  0  0
  6  8  2  0  0  0  0
  6 11  1  0  0  0  0
  7  9  1  0  0  0  0
  7 26  1  0  0  0  0
  7 27  1  0  0  0  0
  8 10  1  0  0  0  0
  9 28  1  0  0  0  0
  9 29  1  0  0  0  0
 10 13  2  0  0  0  0
 11 12  1  0  0  0  0
 11 18  2  0  0  0  0
 12 19  2  0  0  0  0
 13 14  1  0  0  0  0
 13 31  1  0  0  0  0
 14 16  1  0  0  0  0
 14 17  2  0  0  0  0
 15 16  1  0  0  0  0
 16 21  2  0  0  0  0
 17 20  1  0  0  0  0
 17 23  1  0  0  0  0
 18 22  1  0  0  0  0
 18 32  1  0  0  0  0
 19 24  1  0  0  0  0
 19 33  1  0  0  0  0
 20 25  1  0  0  0  0
 20 34  1  0  0  0  0
 21 35  1  0  0  0  0
 22 24  2  0  0  0  0
 22 36  1  0  0  0  0
 23 37  1  0  0  0  0
 24 38  1  0  0  0  0
 25 39  1  0  0  0  0
 25 40  1  0  0  0  0
 25 41  1  0  0  0  0
M  END
> <PUBCHEM_COMPOUND_CID>
3084765

> <PUBCHEM_CONFORMER_RMSD>
0.6

> <PUBCHEM_CONFORMER_DIVERSEORDER>
1
3
2

> <PUBCHEM_MMFF94_PARTIAL_CHARGES>
32
1 -0.57
10 0.15
12 -0.15
13 -0.18
14 0.03
15 0.54
16 0.09
17 -0.14
18 -0.15
19 -0.15
2 -0.68
20 0.42
21 0.16
22 -0.15
23 0.16
24 -0.15
3 -0.47
30 0.27
31 0.15
32 0.15
33 0.15
35 0.15
36 0.15
37 0.15
38 0.15
4 0.03
42 0.4
5 -0.62
6 -0.18
7 0.18
8 -0.2
9 0.3

> <PUBCHEM_EFFECTIVE_ROTOR_COUNT>
1.4

> <PUBCHEM_PHARMACOPHORE_FEATURES>
11
1 1 acceptor
1 2 acceptor
1 2 donor
1 4 cation
1 4 donor
1 5 acceptor
5 4 6 8 11 12 rings
6 11 12 18 19 22 24 rings
6 3 10 13 14 15 16 rings
6 3 6 7 8 9 10 rings
6 5 14 16 17 21 23 rings

> <PUBCHEM_HEAVY_ATOM_COUNT>
25

> <PUBCHEM_ATOM_DEF_STEREO_COUNT>
0

> <PUBCHEM_ATOM_UDEF_STEREO_COUNT>
1

> <PUBCHEM_BOND_DEF_STEREO_COUNT>
0

> <PUBCHEM_BOND_UDEF_STEREO_COUNT>
0

> <PUBCHEM_ISOTOPIC_ATOM_COUNT>
0

> <PUBCHEM_COMPONENT_COUNT>
1

> <PUBCHEM_CACTVS_TAUTO_COUNT>
3

> <PUBCHEM_CONFORMER_ID>
002F11DD00000001

> <PUBCHEM_MMFF94_ENERGY>
70.7479

> <PUBCHEM_FEATURE_SELFOVERLAP>
56.057

> <PUBCHEM_SHAPE_FINGERPRINT>
10319926 262 18339628024151976130
10411042 1 17689999355091755299
10670039 82 18261406571907530012
11578080 2 17097194048834164735
11595378 159 17603852399821639608
12107183 9 18119238459989348946
12173636 292 18409728435451629999
12236239 1 17676482895636926130
12390115 104 18270696276551265353
12403259 226 17983573301802871394
12596602 18 16805883017200390640
13140716 1 17976828902073799483
13402501 40 18413107294359971609
13785724 45 17833545696883404442
138480 1 17546165207905247683
14251764 75 18055080856886949217
14466204 15 18410566280724174472
14508225 48 17909816971370467031
14739800 52 18267283474500611640
14790565 3 18410298038420370028
15042514 8 18192153917805017675
15196674 1 18411700976338955922
15320467 1 17978511167454975040
17844677 252 18411144670958586288
18608769 82 18339927116879079027
19611394 137 17824837869327226539
20510252 161 18341896290463974937
20645477 56 18410015424855111921
20645477 70 17203059504234443918
21033648 29 18341601629511125432
21065198 57 18411419557550053122
21236236 1 18411418410176885973
21267235 1 18339089279774690010
21279426 13 18269278967941035214
21315764 268 18337665408296461588
21421861 104 17751350691425243666
21709351 56 18413103949092047372
221357 26 18201435912818530713
22393880 68 18340774736974553478
23227448 37 18341049717549190998
23402539 116 18340481287127952567
23559900 14 18270676596931903040
245318 6 16521325160695311692
283562 15 18410008832871746435
3004659 81 18408045101020652094
335352 9 18411702046381957462
350125 39 18411140263762887025
3545911 37 18341052999278556264
4073 2 18115028649458299930
4214541 1 18411419514136461848
469060 322 16805324383989736781
495365 180 17203038695365632408
5104073 3 18262241010363199147
5283173 99 18413389830657834656
59755656 215 18412549808163990334
633830 44 17984982596747783245
7808743 9 18410008875156716256
9709674 26 18341900688009982142
9981440 41 18334576858258328459

> <PUBCHEM_SHAPE_MULTIPOLES>
487.81
11.96
3.58
0.73
8.2
0.22
-0.1
6.29
0.05
-2.85
-0.18
-0.19
0.29
0.61

> <PUBCHEM_SHAPE_SELFOVERLAP>
1111.097

> <PUBCHEM_SHAPE_VOLUME>
252.1

> <PUBCHEM_COORDINATE_TYPE>
2
5
10

$$$$
