10091424
  -OEChem-09142003113D

 56 59  0     1  0  0  0  0  0999 V2000
   -1.6509   -1.4904   -2.2013 O   0  0  0  0  0  0  0  0  0  0  0  0
    4.7212    2.0391    0.2252 O   0  0  0  0  0  0  0  0  0  0  0  0
    1.7120    0.7540   -2.1710 O   0  0  0  0  0  0  0  0  0  0  0  0
    3.8893    0.9534    2.0743 O   0  0  0  0  0  0  0  0  0  0  0  0
   -0.3313   -2.1604    0.5967 N   0  0  2  0  0  0  0  0  0  0  0  0
   -2.9901    0.3820   -1.7591 N   0  0  0  0  0  0  0  0  0  0  0  0
   -0.7267   -0.7508    0.7036 C   0  0  2  0  0  0  0  0  0  0  0  0
   -2.1474   -0.7929    0.1286 C   0  0  1  0  0  0  0  0  0  0  0  0
    0.2973    0.1614    0.0245 C   0  0  0  0  0  0  0  0  0  0  0  0
   -2.6870   -2.1571    0.6043 C   0  0  0  0  0  0  0  0  0  0  0  0
    1.6920   -0.0772    0.6389 C   0  0  1  0  0  0  0  0  0  0  0  0
    2.0689   -1.5848    0.6251 C   0  0  1  0  0  0  0  0  0  0  0  0
   -1.4617   -2.9144    1.1304 C   0  0  0  0  0  0  0  0  0  0  0  0
    0.9376   -2.4201    1.2696 C   0  0  0  0  0  0  0  0  0  0  0  0
   -3.0062    0.3794    0.5212 C   0  0  0  0  0  0  0  0  0  0  0  0
   -2.1979   -0.7207   -1.4255 C   0  0  0  0  0  0  0  0  0  0  0  0
    2.3982   -2.1188   -0.7786 C   0  0  0  0  0  0  0  0  0  0  0  0
   -3.4648    1.0272   -0.6242 C   0  0  0  0  0  0  0  0  0  0  0  0
    2.7272    0.7930   -0.0054 C   0  0  0  0  0  0  0  0  0  0  0  0
   -3.3594    0.8514    1.7737 C   0  0  0  0  0  0  0  0  0  0  0  0
    2.8206   -3.5702   -0.7215 C   0  0  0  0  0  0  0  0  0  0  0  0
   -4.2744    2.1452   -0.5772 C   0  0  0  0  0  0  0  0  0  0  0  0
    3.8283    1.2580    0.8898 C   0  0  0  0  0  0  0  0  0  0  0  0
    2.6928    1.1466   -1.2986 C   0  0  0  0  0  0  0  0  0  0  0  0
   -4.1784    1.9825    1.8498 C   0  0  0  0  0  0  0  0  0  0  0  0
   -4.6318    2.6241    0.6837 C   0  0  0  0  0  0  0  0  0  0  0  0
    5.8163    2.5332    1.0040 C   0  0  0  0  0  0  0  0  0  0  0  0
    1.5063    1.7274   -3.1812 C   0  0  0  0  0  0  0  0  0  0  0  0
   -0.7760   -0.4665    1.7664 H   0  0  0  0  0  0  0  0  0  0  0  0
   -0.0047    1.2108    0.1248 H   0  0  0  0  0  0  0  0  0  0  0  0
    0.2470   -0.1111   -1.0249 H   0  0  0  0  0  0  0  0  0  0  0  0
   -3.1546   -2.7157   -0.2153 H   0  0  0  0  0  0  0  0  0  0  0  0
   -3.4315   -2.0636    1.4034 H   0  0  0  0  0  0  0  0  0  0  0  0
    1.5948    0.2230    1.6926 H   0  0  0  0  0  0  0  0  0  0  0  0
    2.9651   -1.7114    1.2490 H   0  0  0  0  0  0  0  0  0  0  0  0
   -1.4714   -2.9103    2.2277 H   0  0  0  0  0  0  0  0  0  0  0  0
   -1.4553   -3.9539    0.7878 H   0  0  0  0  0  0  0  0  0  0  0  0
    1.1670   -3.4895    1.2591 H   0  0  0  0  0  0  0  0  0  0  0  0
    0.8651   -2.1470    2.3319 H   0  0  0  0  0  0  0  0  0  0  0  0
    3.2380   -1.5600   -1.2041 H   0  0  0  0  0  0  0  0  0  0  0  0
    1.5553   -2.0133   -1.4695 H   0  0  0  0  0  0  0  0  0  0  0  0
   -3.2021    0.6798   -2.7040 H   0  0  0  0  0  0  0  0  0  0  0  0
   -3.0148    0.3623    2.6784 H   0  0  0  0  0  0  0  0  0  0  0  0
    3.5647   -3.7488    0.0613 H   0  0  0  0  0  0  0  0  0  0  0  0
    1.9720   -4.2423   -0.5653 H   0  0  0  0  0  0  0  0  0  0  0  0
    3.2721   -3.8598   -1.6770 H   0  0  0  0  0  0  0  0  0  0  0  0
   -4.6226    2.6370   -1.4782 H   0  0  0  0  0  0  0  0  0  0  0  0
    3.4454    1.7634   -1.7722 H   0  0  0  0  0  0  0  0  0  0  0  0
   -4.4690    2.3717    2.8222 H   0  0  0  0  0  0  0  0  0  0  0  0
   -5.2674    3.5016    0.7676 H   0  0  0  0  0  0  0  0  0  0  0  0
    6.4089    1.7005    1.3946 H   0  0  0  0  0  0  0  0  0  0  0  0
    5.4472    3.1622    1.8197 H   0  0  0  0  0  0  0  0  0  0  0  0
    6.4503    3.1399    0.3520 H   0  0  0  0  0  0  0  0  0  0  0  0
    2.3852    1.8129   -3.8296 H   0  0  0  0  0  0  0  0  0  0  0  0
    1.2557    2.7017   -2.7469 H   0  0  0  0  0  0  0  0  0  0  0  0
    0.6619    1.4038   -3.7972 H   0  0  0  0  0  0  0  0  0  0  0  0
  1 16  2  0  0  0  0
  2 23  1  0  0  0  0
  2 27  1  0  0  0  0
  3 24  1  0  0  0  0
  3 28  1  0  0  0  0
  4 23  2  0  0  0  0
  5  7  1  0  0  0  0
  5 13  1  0  0  0  0
  5 14  1  0  0  0  0
  6 16  1  0  0  0  0
  6 18  1  0  0  0  0
  6 42  1  0  0  0  0
  7  8  1  0  0  0  0
  7  9  1  0  0  0  0
  7 29  1  0  0  0  0
  8 10  1  0  0  0  0
  8 15  1  0  0  0  0
  8 16  1  0  0  0  0
  9 11  1  0  0  0  0
  9 30  1  0  0  0  0
  9 31  1  0  0  0  0
 10 13  1  0  0  0  0
 10 32  1  0  0  0  0
 10 33  1  0  0  0  0
 11 12  1  0  0  0  0
 11 19  1  0  0  0  0
 11 34  1  0  0  0  0
 12 14  1  0  0  0  0
 12 17  1  0  0  0  0
 12 35  1  0  0  0  0
 13 36  1  0  0  0  0
 13 37  1  0  0  0  0
 14 38  1  0  0  0  0
 14 39  1  0  0  0  0
 15 18  1  0  0  0  0
 15 20  2  0  0  0  0
 17 21  1  0  0  0  0
 17 40  1  0  0  0  0
 17 41  1  0  0  0  0
 18 22  2  0  0  0  0
 19 23  1  0  0  0  0
 19 24  2  0  0  0  0
 20 25  1  0  0  0  0
 20 43  1  0  0  0  0
 21 44  1  0  0  0  0
 21 45  1  0  0  0  0
 21 46  1  0  0  0  0
 22 26  1  0  0  0  0
 22 47  1  0  0  0  0
 24 48  1  0  0  0  0
 25 26  2  0  0  0  0
 25 49  1  0  0  0  0
 26 50  1  0  0  0  0
 27 51  1  0  0  0  0
 27 52  1  0  0  0  0
 27 53  1  0  0  0  0
 28 54  1  0  0  0  0
 28 55  1  0  0  0  0
 28 56  1  0  0  0  0
M  END
> <PUBCHEM_COMPOUND_CID>
10091424

> <PUBCHEM_CONFORMER_RMSD>
0.8

> <PUBCHEM_CONFORMER_DIVERSEORDER>
3
7
6
17
4
15
14
13
16
20
12
2
18
19
1
5
11
10
8
9

> <PUBCHEM_MMFF94_PARTIAL_CHARGES>
29
1 -0.57
11 0.14
13 0.27
14 0.27
15 -0.14
16 0.57
18 0.12
19 -0.12
2 -0.43
20 -0.15
22 -0.15
23 0.71
24 -0.07
25 -0.15
26 -0.15
27 0.28
28 0.28
3 -0.36
4 -0.57
42 0.37
43 0.15
47 0.15
48 0.15
49 0.15
5 -0.81
50 0.15
6 -0.55
7 0.27
8 0.2

> <PUBCHEM_EFFECTIVE_ROTOR_COUNT>
6.4

> <PUBCHEM_PHARMACOPHORE_FEATURES>
10
1 1 acceptor
1 21 hydrophobe
1 3 acceptor
1 4 acceptor
1 5 cation
1 6 donor
5 5 7 8 10 13 rings
5 6 8 15 16 18 rings
6 15 18 20 22 25 26 rings
6 5 7 9 11 12 14 rings

> <PUBCHEM_HEAVY_ATOM_COUNT>
28

> <PUBCHEM_ATOM_DEF_STEREO_COUNT>
4

> <PUBCHEM_ATOM_UDEF_STEREO_COUNT>
0

> <PUBCHEM_BOND_DEF_STEREO_COUNT>
1

> <PUBCHEM_BOND_UDEF_STEREO_COUNT>
0

> <PUBCHEM_ISOTOPIC_ATOM_COUNT>
0

> <PUBCHEM_COMPONENT_COUNT>
1

> <PUBCHEM_CACTVS_TAUTO_COUNT>
2

> <PUBCHEM_CONFORMER_ID>
0099FBA000000003

> <PUBCHEM_MMFF94_ENERGY>
89.3885

> <PUBCHEM_FEATURE_SELFOVERLAP>
50.924

> <PUBCHEM_SHAPE_FINGERPRINT>
10165383 225 17534649030790583319
10382601 240 17968365754868761890
10764073 3 18263349314807296794
11582403 64 16772644759650168618
11640471 11 18342447111239815531
12156800 1 7847309457938992916
12173636 292 18410580595686797227
12403259 118 17530972388767261537
12422481 6 18041542660666204608
12633257 1 16298397837832782201
12788726 201 17757011255888156831
12930653 34 18340490083421623066
13140716 1 18262237720571620779
13590594 115 17766002697055335496
13965767 371 17968086487326217904
14142880 1 18260823856387601767
14178342 30 18261117434134013130
14468879 13 17632307782481554429
14713325 29 18265336298793875498
14950920 106 15647342973758419073
15163728 17 17704077299877474380
15238133 3 15503494820999726477
17980427 23 18042118933328824180
21033648 29 17314234350481875813
21756936 100 18342740749252847937
22122407 14 17837509453328328545
22149856 69 18191610605259368801
22182313 1 17605266281648835268
22393880 68 16916493857011100096
23558518 356 18187654642951420595
23559900 14 18271244911864193802
283562 15 18192142926799227755
312425 83 16414373168647009345
4098825 35 16630260146662289213
469060 322 18192727841499516673
474 4 18339351968648539107
5081480 168 18193570960390461846
633830 44 18197494031090217811
7288768 16 18259988175773521561
9981440 41 18199455722816406290

> <PUBCHEM_SHAPE_MULTIPOLES>
542.79
9.46
3.63
2.18
2.25
1.71
1.29
-9.18
-3.17
1.58
-0.43
0.27
-0.89
0.3

> <PUBCHEM_SHAPE_SELFOVERLAP>
1170.744

> <PUBCHEM_SHAPE_VOLUME>
299.7

> <PUBCHEM_COORDINATE_TYPE>
2
5
10

$$$$
