6443046
  -OEChem-09142001493D

 53 56  0     1  0  0  0  0  0999 V2000
    0.2628   -2.7431    0.1366 O   0  0  0  0  0  0  0  0  0  0  0  0
   -0.4449   -1.9508   -2.1817 O   0  0  0  0  0  0  0  0  0  0  0  0
   -1.5243   -2.8726    1.5787 O   0  0  0  0  0  0  0  0  0  0  0  0
   -1.4094    2.4756    0.5280 N   0  0  1  0  0  0  0  0  0  0  0  0
    1.2971   -0.0100    1.3819 N   0  0  0  0  0  0  0  0  0  0  0  0
   -0.7854    1.4834    1.4511 C   0  0  1  0  0  0  0  0  0  0  0  0
   -1.7521    0.3297    1.7924 C   0  0  0  0  0  0  0  0  0  0  0  0
   -2.4458   -0.3239    0.5846 C   0  0  1  0  0  0  0  0  0  0  0  0
    0.5674    1.0635    0.9562 C   0  0  0  0  0  0  0  0  0  0  0  0
   -0.4418    3.5320    0.1409 C   0  0  0  0  0  0  0  0  0  0  0  0
   -2.0349    1.8660   -0.6583 C   0  0  0  0  0  0  0  0  0  0  0  0
    1.3285    1.7667    0.0444 C   0  0  0  0  0  0  0  0  0  0  0  0
    0.8251    3.0188   -0.5875 C   0  0  0  0  0  0  0  0  0  0  0  0
   -3.0039    0.7679   -0.2987 C   0  0  0  0  0  0  0  0  0  0  0  0
    2.5527    1.0661   -0.1287 C   0  0  0  0  0  0  0  0  0  0  0  0
    2.5063   -0.0448    0.7201 C   0  0  0  0  0  0  0  0  0  0  0  0
   -1.5432   -1.2519   -0.1748 C   0  0  0  0  0  0  0  0  0  0  0  0
   -4.2800    0.7733   -0.7137 C   0  0  0  0  0  0  0  0  0  0  0  0
    3.7014    1.2666   -0.9200 C   0  0  0  0  0  0  0  0  0  0  0  0
    3.5561   -0.9655    0.8136 C   0  0  0  0  0  0  0  0  0  0  0  0
   -0.9536   -2.3720    0.6178 C   0  0  0  0  0  0  0  0  0  0  0  0
   -1.2669   -1.1091   -1.4794 C   0  0  0  0  0  0  0  0  0  0  0  0
   -5.2646   -0.2917   -0.3795 C   0  0  0  0  0  0  0  0  0  0  0  0
    4.7575    0.3522   -0.8364 C   0  0  0  0  0  0  0  0  0  0  0  0
    4.6839   -0.7460    0.0177 C   0  0  0  0  0  0  0  0  0  0  0  0
    0.9076   -3.8141    0.8346 C   0  0  0  0  0  0  0  0  0  0  0  0
    0.2046   -1.2663   -3.2399 C   0  0  0  0  0  0  0  0  0  0  0  0
   -0.6030    2.0123    2.3983 H   0  0  0  0  0  0  0  0  0  0  0  0
   -1.2554   -0.4130    2.4268 H   0  0  0  0  0  0  0  0  0  0  0  0
   -2.5456    0.7545    2.4267 H   0  0  0  0  0  0  0  0  0  0  0  0
   -3.2539   -0.9358    1.0030 H   0  0  0  0  0  0  0  0  0  0  0  0
   -0.1354    4.0578    1.0556 H   0  0  0  0  0  0  0  0  0  0  0  0
   -0.9379    4.2903   -0.4774 H   0  0  0  0  0  0  0  0  0  0  0  0
   -1.2770    1.5051   -1.3560 H   0  0  0  0  0  0  0  0  0  0  0  0
   -2.5733    2.6575   -1.1966 H   0  0  0  0  0  0  0  0  0  0  0  0
    1.5982    3.7950   -0.5587 H   0  0  0  0  0  0  0  0  0  0  0  0
    0.5983    2.8220   -1.6418 H   0  0  0  0  0  0  0  0  0  0  0  0
    1.0011   -0.6854    2.0730 H   0  0  0  0  0  0  0  0  0  0  0  0
   -4.6416    1.5945   -1.3271 H   0  0  0  0  0  0  0  0  0  0  0  0
    3.7734    2.1186   -1.5900 H   0  0  0  0  0  0  0  0  0  0  0  0
    3.5013   -1.8201    1.4798 H   0  0  0  0  0  0  0  0  0  0  0  0
   -1.7109   -0.3741   -2.1336 H   0  0  0  0  0  0  0  0  0  0  0  0
   -5.6815   -0.1356    0.6199 H   0  0  0  0  0  0  0  0  0  0  0  0
   -4.8426   -1.2982   -0.4542 H   0  0  0  0  0  0  0  0  0  0  0  0
   -6.0945   -0.2524   -1.0936 H   0  0  0  0  0  0  0  0  0  0  0  0
    5.6451    0.5023   -1.4453 H   0  0  0  0  0  0  0  0  0  0  0  0
    5.5161   -1.4435    0.0674 H   0  0  0  0  0  0  0  0  0  0  0  0
    1.0999   -3.5267    1.8726 H   0  0  0  0  0  0  0  0  0  0  0  0
    1.8631   -4.0132    0.3423 H   0  0  0  0  0  0  0  0  0  0  0  0
    0.2941   -4.7190    0.7901 H   0  0  0  0  0  0  0  0  0  0  0  0
    0.9153   -1.9555   -3.7053 H   0  0  0  0  0  0  0  0  0  0  0  0
    0.7652   -0.4014   -2.8671 H   0  0  0  0  0  0  0  0  0  0  0  0
   -0.5139   -0.9532   -4.0054 H   0  0  0  0  0  0  0  0  0  0  0  0
  1 21  1  0  0  0  0
  1 26  1  0  0  0  0
  2 22  1  0  0  0  0
  2 27  1  0  0  0  0
  3 21  2  0  0  0  0
  4  6  1  0  0  0  0
  4 10  1  0  0  0  0
  4 11  1  0  0  0  0
  5  9  1  0  0  0  0
  5 16  1  0  0  0  0
  5 38  1  0  0  0  0
  6  7  1  0  0  0  0
  6  9  1  0  0  0  0
  6 28  1  0  0  0  0
  7  8  1  0  0  0  0
  7 29  1  0  0  0  0
  7 30  1  0  0  0  0
  8 14  1  0  0  0  0
  8 17  1  0  0  0  0
  8 31  1  0  0  0  0
  9 12  2  0  0  0  0
 10 13  1  0  0  0  0
 10 32  1  0  0  0  0
 10 33  1  0  0  0  0
 11 14  1  0  0  0  0
 11 34  1  0  0  0  0
 11 35  1  0  0  0  0
 12 13  1  0  0  0  0
 12 15  1  0  0  0  0
 13 36  1  0  0  0  0
 13 37  1  0  0  0  0
 14 18  2  0  0  0  0
 15 16  1  0  0  0  0
 15 19  2  0  0  0  0
 16 20  2  0  0  0  0
 17 21  1  0  0  0  0
 17 22  2  0  0  0  0
 18 23  1  0  0  0  0
 18 39  1  0  0  0  0
 19 24  1  0  0  0  0
 19 40  1  0  0  0  0
 20 25  1  0  0  0  0
 20 41  1  0  0  0  0
 22 42  1  0  0  0  0
 23 43  1  0  0  0  0
 23 44  1  0  0  0  0
 23 45  1  0  0  0  0
 24 25  2  0  0  0  0
 24 46  1  0  0  0  0
 25 47  1  0  0  0  0
 26 48  1  0  0  0  0
 26 49  1  0  0  0  0
 26 50  1  0  0  0  0
 27 51  1  0  0  0  0
 27 52  1  0  0  0  0
 27 53  1  0  0  0  0
M  END
> <PUBCHEM_COMPOUND_CID>
6443046

> <PUBCHEM_CONFORMER_RMSD>
0.8

> <PUBCHEM_CONFORMER_DIVERSEORDER>
2
4
30
33
26
27
1
9
16
17
7
5
29
22
21
15
14
10
23
8
32
18
20
28
25
13
3
19
6
24
31
11
12

> <PUBCHEM_MMFF94_PARTIAL_CHARGES>
32
1 -0.43
10 0.27
11 0.41
12 -0.18
13 0.18
14 -0.28
16 -0.15
17 -0.12
18 -0.29
19 -0.15
2 -0.36
20 -0.15
21 0.71
22 -0.07
23 0.14
24 -0.15
25 -0.15
26 0.28
27 0.28
3 -0.57
38 0.27
39 0.15
4 -0.81
40 0.15
41 0.15
42 0.15
46 0.15
47 0.15
5 0.03
6 0.45
8 0.28
9 -0.33

> <PUBCHEM_EFFECTIVE_ROTOR_COUNT>
5

> <PUBCHEM_PHARMACOPHORE_FEATURES>
10
1 2 acceptor
1 23 hydrophobe
1 3 acceptor
1 4 cation
1 5 cation
1 5 donor
5 5 9 12 15 16 rings
6 15 16 19 20 24 25 rings
6 4 6 7 8 11 14 rings
6 4 6 9 10 12 13 rings

> <PUBCHEM_HEAVY_ATOM_COUNT>
27

> <PUBCHEM_ATOM_DEF_STEREO_COUNT>
2

> <PUBCHEM_ATOM_UDEF_STEREO_COUNT>
0

> <PUBCHEM_BOND_DEF_STEREO_COUNT>
2

> <PUBCHEM_BOND_UDEF_STEREO_COUNT>
0

> <PUBCHEM_ISOTOPIC_ATOM_COUNT>
0

> <PUBCHEM_COMPONENT_COUNT>
1

> <PUBCHEM_CACTVS_TAUTO_COUNT>
1

> <PUBCHEM_CONFORMER_ID>
0062502600000002

> <PUBCHEM_MMFF94_ENERGY>
68.3182

> <PUBCHEM_FEATURE_SELFOVERLAP>
50.989

> <PUBCHEM_SHAPE_FINGERPRINT>
10863032 1 18113900506686984809
11578080 2 17389372715865366973
12156800 1 17252933376801921530
12422481 6 17771639953152902547
12467345 10 17531819072306275069
12553582 1 18410583911290682808
12592029 89 18409448047011948283
12788726 201 18341335504968933520
13140716 1 18340208599701640225
14787075 74 18261386750654615547
14790565 3 18336838498037650321
16752209 62 18340199687745026336
16945 1 18410296891120796473
19591789 44 18264487476518683107
19930381 70 18117271463340773003
20645476 183 18260828245342992459
20691752 17 18121242899213263957
20775438 99 17262966635439183679
20905425 154 17983007856457490231
229495 10 16372381754577495499
23559900 14 18341049731204817344
34934 24 18339357599556879336
35225 105 18410013273029414286
465052 167 18339367474013123247
484985 159 14862818006920249099
484989 97 18045219590764006435
59755656 215 17988362560264527869
6138700 20 18339923718810627583
70251023 43 17337025362151378022
90525 40 18339083675000507504

> <PUBCHEM_SHAPE_MULTIPOLES>
528.08
7.07
3.74
1.83
1.66
0.86
1.16
-0.37
1.21
-0.16
-0.51
-0.18
0.93
-0.33

> <PUBCHEM_SHAPE_SELFOVERLAP>
1145.421

> <PUBCHEM_SHAPE_VOLUME>
287.8

> <PUBCHEM_COORDINATE_TYPE>
2
5
10

$$$$
