6857493
  -OEChem-09142003023D

 47 50  0     1  0  0  0  0  0999 V2000
   -1.1871   -1.2565    0.0136 N   0  0  1  0  0  0  0  0  0  0  0  0
    1.6038    1.2028   -0.4102 N   0  0  0  0  0  0  0  0  0  0  0  0
   -2.9329    1.0874   -0.1670 C   0  0  2  0  0  0  0  0  0  0  0  0
   -0.6626    0.0191   -0.5457 C   0  0  1  0  0  0  0  0  0  0  0  0
   -3.4561   -0.2969    0.2810 C   0  0  2  0  0  0  0  0  0  0  0  0
   -1.4189    1.1922    0.0902 C   0  0  0  0  0  0  0  0  0  0  0  0
   -2.6034   -1.4282   -0.3273 C   0  0  0  0  0  0  0  0  0  0  0  0
    0.8151    0.0922   -0.3080 C   0  0  0  0  0  0  0  0  0  0  0  0
   -0.3834   -2.4197   -0.4211 C   0  0  0  0  0  0  0  0  0  0  0  0
   -3.6542    2.2443    0.5283 C   0  0  0  0  0  0  0  0  0  0  0  0
   -4.9263   -0.5114   -0.0902 C   0  0  0  0  0  0  0  0  0  0  0  0
    1.6230   -0.9860   -0.0139 C   0  0  0  0  0  0  0  0  0  0  0  0
    1.0549   -2.3529    0.1450 C   0  0  0  0  0  0  0  0  0  0  0  0
    2.9567   -0.5093    0.0985 C   0  0  0  0  0  0  0  0  0  0  0  0
    2.9168    0.8664   -0.1539 C   0  0  0  0  0  0  0  0  0  0  0  0
   -3.1944    3.5831   -0.0123 C   0  0  0  0  0  0  0  0  0  0  0  0
   -5.4461   -1.8225    0.4628 C   0  0  0  0  0  0  0  0  0  0  0  0
    4.1986   -1.1093    0.3876 C   0  0  0  0  0  0  0  0  0  0  0  0
    4.0627    1.6697   -0.1311 C   0  0  0  0  0  0  0  0  0  0  0  0
    5.3514   -0.3163    0.4148 C   0  0  0  0  0  0  0  0  0  0  0  0
    5.2822    1.0516    0.1590 C   0  0  0  0  0  0  0  0  0  0  0  0
   -3.0990    1.1765   -1.2503 H   0  0  0  0  0  0  0  0  0  0  0  0
   -0.8204    0.0353   -1.6340 H   0  0  0  0  0  0  0  0  0  0  0  0
   -3.3653   -0.3527    1.3758 H   0  0  0  0  0  0  0  0  0  0  0  0
   -1.2204    1.2322    1.1704 H   0  0  0  0  0  0  0  0  0  0  0  0
   -1.0302    2.1234   -0.3363 H   0  0  0  0  0  0  0  0  0  0  0  0
   -2.9283   -2.3889    0.0852 H   0  0  0  0  0  0  0  0  0  0  0  0
   -2.7410   -1.4742   -1.4158 H   0  0  0  0  0  0  0  0  0  0  0  0
   -0.3523   -2.4697   -1.5180 H   0  0  0  0  0  0  0  0  0  0  0  0
   -0.8370   -3.3535   -0.0672 H   0  0  0  0  0  0  0  0  0  0  0  0
   -3.4997    2.2073    1.6130 H   0  0  0  0  0  0  0  0  0  0  0  0
   -4.7327    2.1848    0.3570 H   0  0  0  0  0  0  0  0  0  0  0  0
   -5.0644   -0.4839   -1.1773 H   0  0  0  0  0  0  0  0  0  0  0  0
   -5.5500    0.2818    0.3316 H   0  0  0  0  0  0  0  0  0  0  0  0
    1.6830   -3.0920   -0.3643 H   0  0  0  0  0  0  0  0  0  0  0  0
    1.0398   -2.6062    1.2123 H   0  0  0  0  0  0  0  0  0  0  0  0
    1.2821    2.1335   -0.6380 H   0  0  0  0  0  0  0  0  0  0  0  0
   -2.1843    3.8377    0.3212 H   0  0  0  0  0  0  0  0  0  0  0  0
   -3.2227    3.6096   -1.1063 H   0  0  0  0  0  0  0  0  0  0  0  0
   -3.8548    4.3762    0.3554 H   0  0  0  0  0  0  0  0  0  0  0  0
   -5.0557   -2.6853   -0.0844 H   0  0  0  0  0  0  0  0  0  0  0  0
   -5.2071   -1.9385    1.5248 H   0  0  0  0  0  0  0  0  0  0  0  0
   -6.5367   -1.8578    0.3636 H   0  0  0  0  0  0  0  0  0  0  0  0
    4.2684   -2.1746    0.5883 H   0  0  0  0  0  0  0  0  0  0  0  0
    4.0109    2.7348   -0.3310 H   0  0  0  0  0  0  0  0  0  0  0  0
    6.3114   -0.7745    0.6375 H   0  0  0  0  0  0  0  0  0  0  0  0
    6.1903    1.6485    0.1846 H   0  0  0  0  0  0  0  0  0  0  0  0
  1  4  1  0  0  0  0
  1  7  1  0  0  0  0
  1  9  1  0  0  0  0
  2  8  1  0  0  0  0
  2 15  1  0  0  0  0
  2 37  1  0  0  0  0
  3  5  1  0  0  0  0
  3  6  1  0  0  0  0
  3 10  1  0  0  0  0
  3 22  1  0  0  0  0
  4  6  1  0  0  0  0
  4  8  1  0  0  0  0
  4 23  1  0  0  0  0
  5  7  1  0  0  0  0
  5 11  1  0  0  0  0
  5 24  1  0  0  0  0
  6 25  1  0  0  0  0
  6 26  1  0  0  0  0
  7 27  1  0  0  0  0
  7 28  1  0  0  0  0
  8 12  2  0  0  0  0
  9 13  1  0  0  0  0
  9 29  1  0  0  0  0
  9 30  1  0  0  0  0
 10 16  1  0  0  0  0
 10 31  1  0  0  0  0
 10 32  1  0  0  0  0
 11 17  1  0  0  0  0
 11 33  1  0  0  0  0
 11 34  1  0  0  0  0
 12 13  1  0  0  0  0
 12 14  1  0  0  0  0
 13 35  1  0  0  0  0
 13 36  1  0  0  0  0
 14 15  1  0  0  0  0
 14 18  2  0  0  0  0
 15 19  2  0  0  0  0
 16 38  1  0  0  0  0
 16 39  1  0  0  0  0
 16 40  1  0  0  0  0
 17 41  1  0  0  0  0
 17 42  1  0  0  0  0
 17 43  1  0  0  0  0
 18 20  1  0  0  0  0
 18 44  1  0  0  0  0
 19 21  1  0  0  0  0
 19 45  1  0  0  0  0
 20 21  2  0  0  0  0
 20 46  1  0  0  0  0
 21 47  1  0  0  0  0
M  END
> <PUBCHEM_COMPOUND_CID>
6857493

> <PUBCHEM_CONFORMER_RMSD>
0.6

> <PUBCHEM_CONFORMER_DIVERSEORDER>
1
4
2
3

> <PUBCHEM_MMFF94_PARTIAL_CHARGES>
18
1 -0.81
12 -0.18
13 0.18
15 -0.15
18 -0.15
19 -0.15
2 0.03
20 -0.15
21 -0.15
37 0.27
4 0.45
44 0.15
45 0.15
46 0.15
47 0.15
7 0.27
8 -0.33
9 0.27

> <PUBCHEM_EFFECTIVE_ROTOR_COUNT>
3.2

> <PUBCHEM_PHARMACOPHORE_FEATURES>
9
1 1 cation
1 16 hydrophobe
1 17 hydrophobe
1 2 cation
1 2 donor
5 2 8 12 14 15 rings
6 1 3 4 5 6 7 rings
6 1 4 8 9 12 13 rings
6 14 15 18 19 20 21 rings

> <PUBCHEM_HEAVY_ATOM_COUNT>
21

> <PUBCHEM_ATOM_DEF_STEREO_COUNT>
3

> <PUBCHEM_ATOM_UDEF_STEREO_COUNT>
0

> <PUBCHEM_BOND_DEF_STEREO_COUNT>
0

> <PUBCHEM_BOND_UDEF_STEREO_COUNT>
0

> <PUBCHEM_ISOTOPIC_ATOM_COUNT>
0

> <PUBCHEM_COMPONENT_COUNT>
1

> <PUBCHEM_CACTVS_TAUTO_COUNT>
1

> <PUBCHEM_CONFORMER_ID>
0068A31500000001

> <PUBCHEM_MMFF94_ENERGY>
38.4153

> <PUBCHEM_FEATURE_SELFOVERLAP>
45.868

> <PUBCHEM_SHAPE_FINGERPRINT>
10 15 18264480858237954384
10411042 1 17835518602341576407
10616163 171 18339361868753734879
10670039 82 18335155184695693028
1100329 8 18122065574803496855
12107183 9 17831291705833661746
12236239 1 18113052757262138166
12390115 104 18200327540657587313
12403259 118 18336256864965311832
12403259 415 17988636411183574016
12403260 363 18408884053022972589
12596602 18 17531523282103444136
12916748 109 18412549833585575686
12930653 34 18339083683843526271
13073987 5 18409444774473644090
13140716 1 18048599514586237339
13167823 11 18408601448717633562
13862211 1 18339641265235890895
14178342 30 18262245413158390037
14251764 18 18261106401238385322
14341114 176 18261397775149673851
14466204 15 18340198605856379544
14787075 74 18272087248949135115
14790565 3 18408328791757518884
15196674 1 18410575054603582598
15256400 18 18410856530049817716
17492 89 18338517426496937283
17844677 252 18411989044201203240
1813 80 16950281793835471654
200 152 18411412938836723055
20510252 161 18272093786063524025
20715895 44 17834107542349657417
21033648 29 17916850375016470792
21065198 48 18334010562714643944
21236236 1 18413107243432209177
21267235 1 18409737270104684726
21279426 13 18198628727200956870
21315764 268 18339635733022698984
23402539 116 18342733070347272735
23558518 356 18189064109841950291
23559900 14 18337943580601544793
283562 15 18410854357250098739
335352 9 18410291415981726622
350125 39 18411138060523902281
3545911 37 18341050804803462606
4214541 1 18410292484452818732
469060 322 18341349854723513625
474 4 17604715602891972284
474229 33 18411701019214944815
5104073 3 18338232670132661714
633830 44 18271804554222772908
9709674 26 18411144597474812799

> <PUBCHEM_SHAPE_MULTIPOLES>
422.21
11.47
2.9
0.7
2.6
1.31
0.01
1.27
1.79
-2.84
0.06
-0.05
-0.02
-0.22

> <PUBCHEM_SHAPE_SELFOVERLAP>
910.917

> <PUBCHEM_SHAPE_VOLUME>
230

> <PUBCHEM_COORDINATE_TYPE>
2
5
10

$$$$
