3037997
  -OEChem-09142002073D

 53 56  0     1  0  0  0  0  0999 V2000
   -5.1205   -1.6827    0.2701 O   0  0  0  0  0  0  0  0  0  0  0  0
   -2.2652   -0.3924   -2.3839 O   0  0  0  0  0  0  0  0  0  0  0  0
   -3.5785   -1.7076    1.9764 O   0  0  0  0  0  0  0  0  0  0  0  0
    0.3319    1.9358    0.1183 N   0  0  1  0  0  0  0  0  0  0  0  0
    2.3750   -1.1607    0.6354 N   0  0  0  0  0  0  0  0  0  0  0  0
    0.5162    0.5967    0.7433 C   0  0  1  0  0  0  0  0  0  0  0  0
   -1.9686    0.1640    0.4798 C   0  0  1  0  0  0  0  0  0  0  0  0
   -0.5508   -0.3610    0.1959 C   0  0  0  0  0  0  0  0  0  0  0  0
   -2.1188    1.6151   -0.0267 C   0  0  2  0  0  0  0  0  0  0  0  0
   -0.9701    2.5042    0.4869 C   0  0  0  0  0  0  0  0  0  0  0  0
    1.9098    0.1139    0.4777 C   0  0  0  0  0  0  0  0  0  0  0  0
    1.4373    2.8585    0.4574 C   0  0  0  0  0  0  0  0  0  0  0  0
    2.9652    0.9146    0.0950 C   0  0  0  0  0  0  0  0  0  0  0  0
    2.7791    2.3728   -0.1399 C   0  0  0  0  0  0  0  0  0  0  0  0
   -2.9843   -0.7570   -0.1317 C   0  0  0  0  0  0  0  0  0  0  0  0
    4.1163    0.0893   -0.0162 C   0  0  0  0  0  0  0  0  0  0  0  0
   -3.4365    2.2127    0.3767 C   0  0  0  0  0  0  0  0  0  0  0  0
    3.7187   -1.2074    0.3278 C   0  0  0  0  0  0  0  0  0  0  0  0
    5.4613    0.3134   -0.3724 C   0  0  0  0  0  0  0  0  0  0  0  0
   -3.9071   -1.4306    0.8298 C   0  0  0  0  0  0  0  0  0  0  0  0
   -3.0798   -0.9784   -1.4509 C   0  0  0  0  0  0  0  0  0  0  0  0
    4.6050   -2.2905    0.3324 C   0  0  0  0  0  0  0  0  0  0  0  0
   -4.3588    2.6448   -0.4899 C   0  0  0  0  0  0  0  0  0  0  0  0
    6.3567   -0.7620   -0.3730 C   0  0  0  0  0  0  0  0  0  0  0  0
    5.9330   -2.0431   -0.0258 C   0  0  0  0  0  0  0  0  0  0  0  0
   -6.0754   -2.3286    1.1192 C   0  0  0  0  0  0  0  0  0  0  0  0
   -2.0912   -1.2338   -3.5117 C   0  0  0  0  0  0  0  0  0  0  0  0
    0.4014    0.6807    1.8337 H   0  0  0  0  0  0  0  0  0  0  0  0
   -2.0892    0.1835    1.5723 H   0  0  0  0  0  0  0  0  0  0  0  0
   -0.3704   -0.5121   -0.8752 H   0  0  0  0  0  0  0  0  0  0  0  0
   -0.4390   -1.3491    0.6628 H   0  0  0  0  0  0  0  0  0  0  0  0
   -2.0456    1.6378   -1.1216 H   0  0  0  0  0  0  0  0  0  0  0  0
   -1.0744    3.5001    0.0359 H   0  0  0  0  0  0  0  0  0  0  0  0
   -1.0385    2.6382    1.5755 H   0  0  0  0  0  0  0  0  0  0  0  0
    1.5265    2.9578    1.5476 H   0  0  0  0  0  0  0  0  0  0  0  0
    1.2365    3.8594    0.0562 H   0  0  0  0  0  0  0  0  0  0  0  0
    3.6038    2.9421    0.3029 H   0  0  0  0  0  0  0  0  0  0  0  0
    2.7871    2.5595   -1.2209 H   0  0  0  0  0  0  0  0  0  0  0  0
    1.8240   -1.9548    0.9312 H   0  0  0  0  0  0  0  0  0  0  0  0
   -3.6479    2.2958    1.4402 H   0  0  0  0  0  0  0  0  0  0  0  0
    5.8066    1.3067   -0.6447 H   0  0  0  0  0  0  0  0  0  0  0  0
   -3.8167   -1.6420   -1.8852 H   0  0  0  0  0  0  0  0  0  0  0  0
    4.2771   -3.2886    0.6034 H   0  0  0  0  0  0  0  0  0  0  0  0
   -5.2922    3.0662   -0.1332 H   0  0  0  0  0  0  0  0  0  0  0  0
   -4.2037    2.5862   -1.5614 H   0  0  0  0  0  0  0  0  0  0  0  0
    7.3949   -0.5942   -0.6472 H   0  0  0  0  0  0  0  0  0  0  0  0
    6.6458   -2.8638   -0.0326 H   0  0  0  0  0  0  0  0  0  0  0  0
   -5.7020   -3.3085    1.4318 H   0  0  0  0  0  0  0  0  0  0  0  0
   -6.9970   -2.4697    0.5483 H   0  0  0  0  0  0  0  0  0  0  0  0
   -6.2932   -1.7017    1.9890 H   0  0  0  0  0  0  0  0  0  0  0  0
   -3.0339   -1.3632   -4.0546 H   0  0  0  0  0  0  0  0  0  0  0  0
   -1.6824   -2.2076   -3.2194 H   0  0  0  0  0  0  0  0  0  0  0  0
   -1.3758   -0.7543   -4.1864 H   0  0  0  0  0  0  0  0  0  0  0  0
  1 20  1  0  0  0  0
  1 26  1  0  0  0  0
  2 21  1  0  0  0  0
  2 27  1  0  0  0  0
  3 20  2  0  0  0  0
  4  6  1  0  0  0  0
  4 10  1  0  0  0  0
  4 12  1  0  0  0  0
  5 11  1  0  0  0  0
  5 18  1  0  0  0  0
  5 39  1  0  0  0  0
  6  8  1  0  0  0  0
  6 11  1  0  0  0  0
  6 28  1  0  0  0  0
  7  8  1  0  0  0  0
  7  9  1  0  0  0  0
  7 15  1  0  0  0  0
  7 29  1  0  0  0  0
  8 30  1  0  0  0  0
  8 31  1  0  0  0  0
  9 10  1  0  0  0  0
  9 17  1  0  0  0  0
  9 32  1  0  0  0  0
 10 33  1  0  0  0  0
 10 34  1  0  0  0  0
 11 13  2  0  0  0  0
 12 14  1  0  0  0  0
 12 35  1  0  0  0  0
 12 36  1  0  0  0  0
 13 14  1  0  0  0  0
 13 16  1  0  0  0  0
 14 37  1  0  0  0  0
 14 38  1  0  0  0  0
 15 20  1  0  0  0  0
 15 21  2  0  0  0  0
 16 18  1  0  0  0  0
 16 19  2  0  0  0  0
 17 23  2  0  0  0  0
 17 40  1  0  0  0  0
 18 22  2  0  0  0  0
 19 24  1  0  0  0  0
 19 41  1  0  0  0  0
 21 42  1  0  0  0  0
 22 25  1  0  0  0  0
 22 43  1  0  0  0  0
 23 44  1  0  0  0  0
 23 45  1  0  0  0  0
 24 25  2  0  0  0  0
 24 46  1  0  0  0  0
 25 47  1  0  0  0  0
 26 48  1  0  0  0  0
 26 49  1  0  0  0  0
 26 50  1  0  0  0  0
 27 51  1  0  0  0  0
 27 52  1  0  0  0  0
 27 53  1  0  0  0  0
M  END
> <PUBCHEM_COMPOUND_CID>
3037997

> <PUBCHEM_CONFORMER_RMSD>
0.8

> <PUBCHEM_CONFORMER_DIVERSEORDER>
1
16
7
17
6
8
11
18
15
9
10
13
14
12
4
2
5
3

> <PUBCHEM_MMFF94_PARTIAL_CHARGES>
34
1 -0.43
10 0.27
11 -0.33
12 0.27
13 -0.18
14 0.18
15 -0.12
17 -0.29
18 -0.15
19 -0.15
2 -0.36
20 0.71
21 -0.07
22 -0.15
23 -0.3
24 -0.15
25 -0.15
26 0.28
27 0.28
3 -0.57
39 0.27
4 -0.81
40 0.15
41 0.15
42 0.15
43 0.15
44 0.15
45 0.15
46 0.15
47 0.15
5 0.03
6 0.45
7 0.14
9 0.14

> <PUBCHEM_EFFECTIVE_ROTOR_COUNT>
6.2

> <PUBCHEM_PHARMACOPHORE_FEATURES>
10
1 2 acceptor
1 23 hydrophobe
1 3 acceptor
1 4 cation
1 5 cation
1 5 donor
5 5 11 13 16 18 rings
6 16 18 19 22 24 25 rings
6 4 6 11 12 13 14 rings
6 4 6 7 8 9 10 rings

> <PUBCHEM_HEAVY_ATOM_COUNT>
27

> <PUBCHEM_ATOM_DEF_STEREO_COUNT>
3

> <PUBCHEM_ATOM_UDEF_STEREO_COUNT>
0

> <PUBCHEM_BOND_DEF_STEREO_COUNT>
1

> <PUBCHEM_BOND_UDEF_STEREO_COUNT>
0

> <PUBCHEM_ISOTOPIC_ATOM_COUNT>
0

> <PUBCHEM_COMPONENT_COUNT>
1

> <PUBCHEM_CACTVS_TAUTO_COUNT>
1

> <PUBCHEM_CONFORMER_ID>
002E5B2D00000001

> <PUBCHEM_MMFF94_ENERGY>
62.4465

> <PUBCHEM_FEATURE_SELFOVERLAP>
50.942

> <PUBCHEM_SHAPE_FINGERPRINT>
10 15 11455888078778398479
11552529 35 15410029916073424110
11578080 2 16807560674850485575
12107698 1 18412546526566233339
12166972 35 17822016415263571166
12236239 1 17703235134395435379
12422481 6 17489320680445782879
12553582 1 18342446067610625050
12760667 363 18410859884672795651
13140716 1 18341897363863570361
13540713 4 18338783611574703721
14767858 380 18262815063930680564
14790565 3 17616818734195159016
15196674 1 18409450263410472624
15537594 2 18130509738200365126
17492 89 18409730689802993049
17844677 252 18409738369531708704
1813 80 18201453483941137084
20554085 129 15051472496077903387
20602899 9 16486393427256354861
21236236 1 18408609132588108787
21267235 1 18411146852564336154
221357 26 18334859445515153555
221490 88 18408326609618714040
22182313 1 17631468777884423157
22393880 68 17967805029544966712
23402539 116 18338232666391600986
235170 7 17022615369350022622
23522609 53 18050607093901531057
23559900 14 18409160026273580633
23598288 3 18130785694149570125
329604 57 18261399961841844034
335352 9 18338797793519629229
350125 39 18409736170614136745
4058900 60 17611737909018632309
44062 13 18337953389631349229
46194498 28 17313666082999681332
465052 167 18270410502017002551
497634 4 17894915122305593031
5104073 3 18341890767130953056
59755656 520 17968938566257212785
70251023 43 18054488452131246247
7970288 3 18340767138703445342

> <PUBCHEM_SHAPE_MULTIPOLES>
528.08
13.5
3.17
1.61
7.99
1.39
-1.75
-8.8
1.22
-1.79
0.45
-2.42
-1.14
0.54

> <PUBCHEM_SHAPE_SELFOVERLAP>
1139.094

> <PUBCHEM_SHAPE_VOLUME>
289

> <PUBCHEM_COORDINATE_TYPE>
2
5
10

$$$$
