3050539
  -OEChem-09142001493D

 52 55  0     1  0  0  0  0  0999 V2000
   -2.9684    1.8422   -2.7688 O   0  0  0  0  0  0  0  0  0  0  0  0
   -4.1298    2.2169    1.1863 O   0  0  0  0  0  0  0  0  0  0  0  0
   -2.4337    0.7513    1.7293 O   0  0  0  0  0  0  0  0  0  0  0  0
   -0.0620   -1.9101    0.1370 N   0  0  1  0  0  0  0  0  0  0  0  0
    2.1980    0.9181   -0.8205 N   0  0  0  0  0  0  0  0  0  0  0  0
   -2.2123   -0.1861   -0.8599 C   0  0  1  0  0  0  0  0  0  0  0  0
    0.2617   -0.7554   -0.7436 C   0  0  1  0  0  0  0  0  0  0  0  0
   -0.7979    0.3333   -0.5401 C   0  0  0  0  0  0  0  0  0  0  0  0
   -2.4993   -1.4890   -0.0743 C   0  0  2  0  0  0  0  0  0  0  0  0
   -1.3489   -2.5027   -0.2437 C   0  0  0  0  0  0  0  0  0  0  0  0
    1.6465   -0.2714   -0.4374 C   0  0  0  0  0  0  0  0  0  0  0  0
   -3.2306    0.9214   -0.5641 C   0  0  2  0  0  0  0  0  0  0  0  0
    1.0171   -2.9222    0.1372 C   0  0  0  0  0  0  0  0  0  0  0  0
    2.6098   -0.9993    0.2291 C   0  0  0  0  0  0  0  0  0  0  0  0
    2.3166   -2.3590    0.7592 C   0  0  0  0  0  0  0  0  0  0  0  0
   -3.7905   -2.1449   -0.4784 C   0  0  0  0  0  0  0  0  0  0  0  0
    3.7892   -0.2089    0.2832 C   0  0  0  0  0  0  0  0  0  0  0  0
   -2.9299    2.1705   -1.3849 C   0  0  0  0  0  0  0  0  0  0  0  0
    3.5039    0.9886   -0.3820 C   0  0  0  0  0  0  0  0  0  0  0  0
   -3.1984    1.2553    0.9168 C   0  0  0  0  0  0  0  0  0  0  0  0
    5.0757   -0.3909    0.8289 C   0  0  0  0  0  0  0  0  0  0  0  0
   -4.8151   -2.3566    0.3547 C   0  0  0  0  0  0  0  0  0  0  0  0
    4.4471    2.0125   -0.5272 C   0  0  0  0  0  0  0  0  0  0  0  0
    6.0269    0.6263    0.6916 C   0  0  0  0  0  0  0  0  0  0  0  0
    5.7154    1.8086    0.0234 C   0  0  0  0  0  0  0  0  0  0  0  0
   -4.1913    2.6517    2.5483 C   0  0  0  0  0  0  0  0  0  0  0  0
   -2.2479   -0.4290   -1.9316 H   0  0  0  0  0  0  0  0  0  0  0  0
    0.2528   -1.0792   -1.7946 H   0  0  0  0  0  0  0  0  0  0  0  0
   -0.6715    0.7543    0.4591 H   0  0  0  0  0  0  0  0  0  0  0  0
   -0.5493    1.1441   -1.2343 H   0  0  0  0  0  0  0  0  0  0  0  0
   -2.5471   -1.3033    1.0018 H   0  0  0  0  0  0  0  0  0  0  0  0
   -1.5541   -3.3702    0.3983 H   0  0  0  0  0  0  0  0  0  0  0  0
   -1.3105   -2.8751   -1.2770 H   0  0  0  0  0  0  0  0  0  0  0  0
   -4.2350    0.5557   -0.8094 H   0  0  0  0  0  0  0  0  0  0  0  0
    1.2115   -3.2686   -0.8869 H   0  0  0  0  0  0  0  0  0  0  0  0
    0.7188   -3.7990    0.7248 H   0  0  0  0  0  0  0  0  0  0  0  0
    3.1480   -3.0411    0.5495 H   0  0  0  0  0  0  0  0  0  0  0  0
    2.2033   -2.2958    1.8486 H   0  0  0  0  0  0  0  0  0  0  0  0
   -3.8917   -2.4614   -1.5138 H   0  0  0  0  0  0  0  0  0  0  0  0
    1.7271    1.6425   -1.3449 H   0  0  0  0  0  0  0  0  0  0  0  0
   -3.6952    2.9370   -1.2168 H   0  0  0  0  0  0  0  0  0  0  0  0
   -1.9750    2.6465   -1.1465 H   0  0  0  0  0  0  0  0  0  0  0  0
    5.3336   -1.3075    1.3516 H   0  0  0  0  0  0  0  0  0  0  0  0
   -5.7216   -2.8342   -0.0008 H   0  0  0  0  0  0  0  0  0  0  0  0
   -4.7717   -2.0594    1.3965 H   0  0  0  0  0  0  0  0  0  0  0  0
    4.2065    2.9334   -1.0479 H   0  0  0  0  0  0  0  0  0  0  0  0
   -3.8509    1.4821   -2.9615 H   0  0  0  0  0  0  0  0  0  0  0  0
    7.0202    0.4907    1.1110 H   0  0  0  0  0  0  0  0  0  0  0  0
    6.4699    2.5852   -0.0722 H   0  0  0  0  0  0  0  0  0  0  0  0
   -4.4532    1.8139    3.2016 H   0  0  0  0  0  0  0  0  0  0  0  0
   -4.9700    3.4149    2.6268 H   0  0  0  0  0  0  0  0  0  0  0  0
   -3.2358    3.0924    2.8483 H   0  0  0  0  0  0  0  0  0  0  0  0
  1 18  1  0  0  0  0
  1 47  1  0  0  0  0
  2 20  1  0  0  0  0
  2 26  1  0  0  0  0
  3 20  2  0  0  0  0
  4  7  1  0  0  0  0
  4 10  1  0  0  0  0
  4 13  1  0  0  0  0
  5 11  1  0  0  0  0
  5 19  1  0  0  0  0
  5 40  1  0  0  0  0
  6  8  1  0  0  0  0
  6  9  1  0  0  0  0
  6 12  1  0  0  0  0
  6 27  1  0  0  0  0
  7  8  1  0  0  0  0
  7 11  1  0  0  0  0
  7 28  1  0  0  0  0
  8 29  1  0  0  0  0
  8 30  1  0  0  0  0
  9 10  1  0  0  0  0
  9 16  1  0  0  0  0
  9 31  1  0  0  0  0
 10 32  1  0  0  0  0
 10 33  1  0  0  0  0
 11 14  2  0  0  0  0
 12 18  1  0  0  0  0
 12 20  1  0  0  0  0
 12 34  1  0  0  0  0
 13 15  1  0  0  0  0
 13 35  1  0  0  0  0
 13 36  1  0  0  0  0
 14 15  1  0  0  0  0
 14 17  1  0  0  0  0
 15 37  1  0  0  0  0
 15 38  1  0  0  0  0
 16 22  2  0  0  0  0
 16 39  1  0  0  0  0
 17 19  1  0  0  0  0
 17 21  2  0  0  0  0
 18 41  1  0  0  0  0
 18 42  1  0  0  0  0
 19 23  2  0  0  0  0
 21 24  1  0  0  0  0
 21 43  1  0  0  0  0
 22 44  1  0  0  0  0
 22 45  1  0  0  0  0
 23 25  1  0  0  0  0
 23 46  1  0  0  0  0
 24 25  2  0  0  0  0
 24 48  1  0  0  0  0
 25 49  1  0  0  0  0
 26 50  1  0  0  0  0
 26 51  1  0  0  0  0
 26 52  1  0  0  0  0
M  END
> <PUBCHEM_COMPOUND_CID>
3050539

> <PUBCHEM_CONFORMER_RMSD>
0.8

> <PUBCHEM_CONFORMER_DIVERSEORDER>
2
3
7
5
4
1
8
6

> <PUBCHEM_MMFF94_PARTIAL_CHARGES>
32
1 -0.68
10 0.27
11 -0.33
12 0.06
13 0.27
14 -0.18
15 0.18
16 -0.29
18 0.28
19 -0.15
2 -0.43
20 0.66
21 -0.15
22 -0.3
23 -0.15
24 -0.15
25 -0.15
26 0.28
3 -0.57
39 0.15
4 -0.81
40 0.27
43 0.15
44 0.15
45 0.15
46 0.15
47 0.4
48 0.15
49 0.15
5 0.03
7 0.45
9 0.14

> <PUBCHEM_EFFECTIVE_ROTOR_COUNT>
6.2

> <PUBCHEM_PHARMACOPHORE_FEATURES>
11
1 1 acceptor
1 1 donor
1 22 hydrophobe
1 3 acceptor
1 4 cation
1 5 cation
1 5 donor
5 5 11 14 17 19 rings
6 17 19 21 23 24 25 rings
6 4 6 7 8 9 10 rings
6 4 7 11 13 14 15 rings

> <PUBCHEM_HEAVY_ATOM_COUNT>
26

> <PUBCHEM_ATOM_DEF_STEREO_COUNT>
4

> <PUBCHEM_ATOM_UDEF_STEREO_COUNT>
0

> <PUBCHEM_BOND_DEF_STEREO_COUNT>
0

> <PUBCHEM_BOND_UDEF_STEREO_COUNT>
0

> <PUBCHEM_ISOTOPIC_ATOM_COUNT>
0

> <PUBCHEM_COMPONENT_COUNT>
1

> <PUBCHEM_CACTVS_TAUTO_COUNT>
1

> <PUBCHEM_CONFORMER_ID>
002E8C2B00000002

> <PUBCHEM_MMFF94_ENERGY>
60.6348

> <PUBCHEM_FEATURE_SELFOVERLAP>
56.017

> <PUBCHEM_SHAPE_FINGERPRINT>
10670039 82 18115318877277537020
11582403 64 16085279357729644823
11796584 16 11891317752279927344
12107183 9 17973145250447644634
12107698 1 17703224147552652344
12390115 104 18340216253713039382
12633257 1 18335978654184507258
12788726 201 18054525848015898767
13140716 1 18265901250471302355
13631057 29 18268141131924730127
13965767 371 18191598444882879637
13994607 96 17560804295333809049
14142880 1 18413394233231239581
14251764 38 17844800589630526912
14466204 15 18335971048335749672
14790565 3 18114744949620127076
15196674 1 18334286579104718222
15324884 4 17245559876370570615
15338160 23 18202013135723672401
15475509 8 17554907481530897126
18603816 31 13696965524147638512
21033648 144 18338792304160372692
21033650 10 17985575418462472612
21236236 1 18410290345532536831
21267235 1 18260547874864395590
21315764 268 18264479767010318484
21756936 100 17846498123312619768
23402539 116 18267859678275273743
283562 15 18339357574008816459
2838139 119 16772654685694695120
3380486 145 18040437659922875821
350125 39 18337106890221255997
392239 28 18198919169910924833
46194498 28 14188418578362992104
469060 322 18114752637141769721
474 4 18340769230362048290
497634 4 18411420647986566981
5104073 3 18408878534659956402
633830 44 17987522515572933230
7808743 9 18202289060990882241

> <PUBCHEM_SHAPE_MULTIPOLES>
507.5
12.01
3.32
1.54
10.59
0.56
-0.1
-5.47
-2.79
-3.02
-0.57
-2.2
-1.48
-1.39

> <PUBCHEM_SHAPE_SELFOVERLAP>
1096.935

> <PUBCHEM_SHAPE_VOLUME>
276.3

> <PUBCHEM_COORDINATE_TYPE>
2
5
10

$$$$
