5375252
  -OEChem-09142003193D

 22 23  0     0  0  0  0  0  0999 V2000
    1.2107    1.5403    0.0005 O   0  0  0  0  0  0  0  0  0  0  0  0
   -1.3815   -2.5565    0.0003 O   0  0  0  0  0  0  0  0  0  0  0  0
   -3.5356    1.6763   -0.0009 O   0  0  0  0  0  0  0  0  0  0  0  0
    1.2661   -2.5340   -0.0011 O   0  0  0  0  0  0  0  0  0  0  0  0
   -0.0348   -0.5460    0.0006 C   0  0  0  0  0  0  0  0  0  0  0  0
    0.0265    0.8469    0.0006 C   0  0  0  0  0  0  0  0  0  0  0  0
   -1.2695   -1.1991    0.0004 C   0  0  0  0  0  0  0  0  0  0  0  0
    1.2214   -1.3116    0.0004 C   0  0  0  0  0  0  0  0  0  0  0  0
    2.3950    0.8210   -0.0001 C   0  0  0  0  0  0  0  0  0  0  0  0
   -1.1504    1.5962    0.0002 C   0  0  0  0  0  0  0  0  0  0  0  0
    2.4655   -0.5182   -0.0001 C   0  0  0  0  0  0  0  0  0  0  0  0
   -2.3857    0.9475   -0.0001 C   0  0  0  0  0  0  0  0  0  0  0  0
   -2.4449   -0.4469   -0.0001 C   0  0  0  0  0  0  0  0  0  0  0  0
    3.6171    1.6842   -0.0005 C   0  0  0  0  0  0  0  0  0  0  0  0
   -1.1073    2.6824    0.0001 H   0  0  0  0  0  0  0  0  0  0  0  0
    3.4095   -1.0508   -0.0006 H   0  0  0  0  0  0  0  0  0  0  0  0
   -3.4072   -0.9535   -0.0005 H   0  0  0  0  0  0  0  0  0  0  0  0
    3.6273    2.3246    0.8874 H   0  0  0  0  0  0  0  0  0  0  0  0
    3.6268    2.3246   -0.8883 H   0  0  0  0  0  0  0  0  0  0  0  0
    4.5401    1.0951   -0.0008 H   0  0  0  0  0  0  0  0  0  0  0  0
   -0.5039   -2.9689    0.0014 H   0  0  0  0  0  0  0  0  0  0  0  0
   -4.2946    1.0681   -0.0012 H   0  0  0  0  0  0  0  0  0  0  0  0
  1  6  1  0  0  0  0
  1  9  1  0  0  0  0
  2  7  1  0  0  0  0
  2 21  1  0  0  0  0
  3 12  1  0  0  0  0
  3 22  1  0  0  0  0
  4  8  2  0  0  0  0
  5  6  1  0  0  0  0
  5  7  2  0  0  0  0
  5  8  1  0  0  0  0
  6 10  2  0  0  0  0
  7 13  1  0  0  0  0
  8 11  1  0  0  0  0
  9 11  2  0  0  0  0
  9 14  1  0  0  0  0
 10 12  1  0  0  0  0
 10 15  1  0  0  0  0
 11 16  1  0  0  0  0
 12 13  2  0  0  0  0
 13 17  1  0  0  0  0
 14 18  1  0  0  0  0
 14 19  1  0  0  0  0
 14 20  1  0  0  0  0
M  END
> <PUBCHEM_COMPOUND_CID>
5375252

> <PUBCHEM_CONFORMER_RMSD>
0.4

> <PUBCHEM_CONFORMER_DIVERSEORDER>
1

> <PUBCHEM_MMFF94_PARTIAL_CHARGES>
19
1 -0.16
10 -0.15
11 -0.14
12 0.08
13 -0.15
14 0.14
15 0.15
16 0.15
17 0.15
2 -0.53
21 0.45
22 0.45
3 -0.53
4 -0.57
5 0.09
6 0.08
7 0.08
8 0.47
9 -0.06

> <PUBCHEM_EFFECTIVE_ROTOR_COUNT>
0

> <PUBCHEM_PHARMACOPHORE_FEATURES>
6
1 1 acceptor
1 2 donor
1 3 donor
1 4 acceptor
6 1 5 6 8 9 11 rings
6 5 6 7 10 12 13 rings

> <PUBCHEM_HEAVY_ATOM_COUNT>
14

> <PUBCHEM_ATOM_DEF_STEREO_COUNT>
0

> <PUBCHEM_ATOM_UDEF_STEREO_COUNT>
0

> <PUBCHEM_BOND_DEF_STEREO_COUNT>
0

> <PUBCHEM_BOND_UDEF_STEREO_COUNT>
0

> <PUBCHEM_ISOTOPIC_ATOM_COUNT>
0

> <PUBCHEM_COMPONENT_COUNT>
1

> <PUBCHEM_CACTVS_TAUTO_COUNT>
33

> <PUBCHEM_CONFORMER_ID>
0052051400000001

> <PUBCHEM_MMFF94_ENERGY>
35.9791

> <PUBCHEM_FEATURE_SELFOVERLAP>
30.474

> <PUBCHEM_SHAPE_FINGERPRINT>
10608611 8 18410291402115824372
10967382 1 18338798905482985925
11132069 177 18410287051720038128
11206711 2 18195245748274389268
11471102 20 18049718521518904381
11680986 33 18337117760852287835
12382932 28 18411419513909446384
12423570 1 11224623550522552696
12524768 44 18263364707009736423
13140716 1 18409725158323037322
13380535 21 18411149029738052738
13380535 76 18410568487604004674
13380536 305 18195533579850300327
13897977 150 18410008797762967133
14325111 11 18410855460154964288
14614273 12 18188477073126429325
14897335 6 18411412908276157621
15775835 57 18410860962055471784
16945 1 18410575046024255972
18186145 218 18198345048515847277
193761 8 18410856555361114246
20510252 161 18055076724863990576
20871998 184 18127699446229639967
21501502 16 18410848863058596522
2334 1 18338799043238385542
23402539 116 17910948368307778222
23402655 69 18270387318579994357
23463225 33 18334288760895123208
23552423 10 18336547127144195686
23559900 14 18272094907762307180
241688 4 16899057457656486986
2748010 2 18339085989950742390
43471831 8 18263357144047478354
528886 8 18339074994734185904
53812653 166 18342736325452577936
53812653 8 17901681684503878948
54173680 148 17760368090942514322
63268167 104 18268432343338677585
6333449 129 18339921627129957717
7364860 26 18270117886359057454

> <PUBCHEM_SHAPE_MULTIPOLES>
264.64
4.75
2.49
0.59
0.84
1.05
0
-2.5
0
-0.19
0
0.02
-0.01
0

> <PUBCHEM_SHAPE_SELFOVERLAP>
581.019

> <PUBCHEM_SHAPE_VOLUME>
142.8

> <PUBCHEM_COORDINATE_TYPE>
2
5
10

$$$$
