9548846
  -OEChem-09142003073D

 43 47  0     1  0  0  0  0  0999 V2000
   -5.0657    0.9328    0.0529 O   0  0  0  0  0  0  0  0  0  0  0  0
   -0.9634   -1.7200    0.1190 N   0  0  2  0  0  0  0  0  0  0  0  0
    2.1422    0.5131    2.0049 N   0  0  0  0  0  0  0  0  0  0  0  0
    1.2191   -0.9762    0.3267 C   0  0  2  0  0  0  0  0  0  0  0  0
   -0.1381   -0.5679   -0.2712 C   0  0  2  0  0  0  0  0  0  0  0  0
    1.2713   -2.4851    0.0044 C   0  0  0  0  0  0  0  0  0  0  0  0
   -0.7721    0.7548    0.1826 C   0  0  0  0  0  0  0  0  0  0  0  0
   -0.1846   -2.8990   -0.2491 C   0  0  0  0  0  0  0  0  0  0  0  0
   -2.1840    0.8478   -0.4166 C   0  0  1  0  0  0  0  0  0  0  0  0
   -2.9969   -0.3920    0.0128 C   0  0  2  0  0  0  0  0  0  0  0  0
   -2.3071   -1.6799   -0.4565 C   0  0  0  0  0  0  0  0  0  0  0  0
    1.3732   -0.7184    1.8625 C   0  0  0  0  0  0  0  0  0  0  0  0
    2.3597   -0.1536   -0.2071 C   0  0  0  0  0  0  0  0  0  0  0  0
    2.8433    0.6770    0.8101 C   0  0  0  0  0  0  0  0  0  0  0  0
   -4.4278   -0.2324   -0.5001 C   0  0  0  0  0  0  0  0  0  0  0  0
   -2.9409    2.0849   -0.0402 C   0  0  0  0  0  0  0  0  0  0  0  0
    2.8902   -0.0997   -1.4868 C   0  0  0  0  0  0  0  0  0  0  0  0
    3.8408    1.6032    0.5559 C   0  0  0  0  0  0  0  0  0  0  0  0
   -4.2642    2.0414    0.1659 C   0  0  0  0  0  0  0  0  0  0  0  0
    3.9177    0.8102   -1.7417 C   0  0  0  0  0  0  0  0  0  0  0  0
    4.3874    1.6586   -0.7283 C   0  0  0  0  0  0  0  0  0  0  0  0
   -0.0534   -0.5369   -1.3694 H   0  0  0  0  0  0  0  0  0  0  0  0
    1.7050   -3.0722    0.8211 H   0  0  0  0  0  0  0  0  0  0  0  0
    1.8661   -2.6960   -0.8918 H   0  0  0  0  0  0  0  0  0  0  0  0
   -0.1614    1.5993   -0.1586 H   0  0  0  0  0  0  0  0  0  0  0  0
   -0.8320    0.8236    1.2748 H   0  0  0  0  0  0  0  0  0  0  0  0
   -0.3107   -3.1596   -1.3074 H   0  0  0  0  0  0  0  0  0  0  0  0
   -0.4645   -3.7668    0.3562 H   0  0  0  0  0  0  0  0  0  0  0  0
   -2.0827    0.8592   -1.5117 H   0  0  0  0  0  0  0  0  0  0  0  0
   -3.0450   -0.4117    1.1136 H   0  0  0  0  0  0  0  0  0  0  0  0
   -2.8827   -2.5462   -0.1099 H   0  0  0  0  0  0  0  0  0  0  0  0
   -2.2748   -1.7200   -1.5529 H   0  0  0  0  0  0  0  0  0  0  0  0
    0.4175   -0.6505    2.3907 H   0  0  0  0  0  0  0  0  0  0  0  0
    1.9461   -1.5227    2.3415 H   0  0  0  0  0  0  0  0  0  0  0  0
    2.5231    0.8229    2.8882 H   0  0  0  0  0  0  0  0  0  0  0  0
   -4.4570   -0.1583   -1.5943 H   0  0  0  0  0  0  0  0  0  0  0  0
   -5.0343   -1.0981   -0.2135 H   0  0  0  0  0  0  0  0  0  0  0  0
   -2.4103    3.0272    0.0501 H   0  0  0  0  0  0  0  0  0  0  0  0
    2.5125   -0.7344   -2.2810 H   0  0  0  0  0  0  0  0  0  0  0  0
    4.1984    2.2717    1.3322 H   0  0  0  0  0  0  0  0  0  0  0  0
   -4.8461    2.9035    0.4604 H   0  0  0  0  0  0  0  0  0  0  0  0
    4.3492    0.8721   -2.7370 H   0  0  0  0  0  0  0  0  0  0  0  0
    5.1786    2.3705   -0.9474 H   0  0  0  0  0  0  0  0  0  0  0  0
  1 15  1  0  0  0  0
  1 19  1  0  0  0  0
  2  5  1  0  0  0  0
  2  8  1  0  0  0  0
  2 11  1  0  0  0  0
  3 12  1  0  0  0  0
  3 14  1  0  0  0  0
  3 35  1  0  0  0  0
  4  5  1  0  0  0  0
  4  6  1  0  0  0  0
  4 12  1  0  0  0  0
  4 13  1  0  0  0  0
  5  7  1  0  0  0  0
  5 22  1  0  0  0  0
  6  8  1  0  0  0  0
  6 23  1  0  0  0  0
  6 24  1  0  0  0  0
  7  9  1  0  0  0  0
  7 25  1  0  0  0  0
  7 26  1  0  0  0  0
  8 27  1  0  0  0  0
  8 28  1  0  0  0  0
  9 10  1  0  0  0  0
  9 16  1  0  0  0  0
  9 29  1  0  0  0  0
 10 11  1  0  0  0  0
 10 15  1  0  0  0  0
 10 30  1  0  0  0  0
 11 31  1  0  0  0  0
 11 32  1  0  0  0  0
 12 33  1  0  0  0  0
 12 34  1  0  0  0  0
 13 14  1  0  0  0  0
 13 17  2  0  0  0  0
 14 18  2  0  0  0  0
 15 36  1  0  0  0  0
 15 37  1  0  0  0  0
 16 19  2  0  0  0  0
 16 38  1  0  0  0  0
 17 20  1  0  0  0  0
 17 39  1  0  0  0  0
 18 21  1  0  0  0  0
 18 40  1  0  0  0  0
 19 41  1  0  0  0  0
 20 21  2  0  0  0  0
 20 42  1  0  0  0  0
 21 43  1  0  0  0  0
M  END
> <PUBCHEM_COMPOUND_CID>
9548846

> <PUBCHEM_CONFORMER_RMSD>
0.6

> <PUBCHEM_CONFORMER_DIVERSEORDER>
1
2

> <PUBCHEM_MMFF94_PARTIAL_CHARGES>
25
1 -0.36
11 0.27
12 0.37
13 -0.14
14 0.1
15 0.28
16 -0.29
17 -0.15
18 -0.15
19 -0.07
2 -0.81
20 -0.15
21 -0.15
3 -0.87
35 0.4
38 0.15
39 0.15
4 0.14
40 0.15
41 0.15
42 0.15
43 0.15
5 0.27
8 0.27
9 0.14

> <PUBCHEM_EFFECTIVE_ROTOR_COUNT>
1.6

> <PUBCHEM_PHARMACOPHORE_FEATURES>
9
1 1 acceptor
1 2 cation
1 3 cation
1 3 donor
5 2 4 5 6 8 rings
5 3 4 12 13 14 rings
6 1 9 10 15 16 19 rings
6 13 14 17 18 20 21 rings
6 2 5 7 9 10 11 rings

> <PUBCHEM_HEAVY_ATOM_COUNT>
21

> <PUBCHEM_ATOM_DEF_STEREO_COUNT>
4

> <PUBCHEM_ATOM_UDEF_STEREO_COUNT>
0

> <PUBCHEM_BOND_DEF_STEREO_COUNT>
0

> <PUBCHEM_BOND_UDEF_STEREO_COUNT>
0

> <PUBCHEM_ISOTOPIC_ATOM_COUNT>
0

> <PUBCHEM_COMPONENT_COUNT>
1

> <PUBCHEM_CACTVS_TAUTO_COUNT>
1

> <PUBCHEM_CONFORMER_ID>
0091B42E00000001

> <PUBCHEM_MMFF94_ENERGY>
72.6836

> <PUBCHEM_FEATURE_SELFOVERLAP>
45.875

> <PUBCHEM_SHAPE_FINGERPRINT>
10498660 4 18412542106997724757
10646746 165 18411417341056869052
10670039 82 18335426750813560476
11640471 11 17749667497556554660
11720765 8 17415850081159370996
12173636 292 18411133671051242191
12236239 1 17749383815077501492
12633257 1 14346078667630567980
12788726 201 17174072202696842346
12892183 10 13045936941188694380
13140716 1 18263921047230509779
13224815 77 18335696109940300821
13583140 156 16588019160717885933
13828863 39 13914043226037936062
13878862 14 17759508981762498925
13965767 371 18041266674204316332
14251764 38 17388802094890034093
14289901 80 15791725304615063445
14341114 328 17023189352726072697
14739800 52 17977929500735217768
14790565 3 18411710897893433377
15210252 30 18413394228457088760
15238133 3 17272008658251291585
16945 1 18265050417317842498
17134986 127 18410577258285776516
1798214 55 18410292501658944909
18186145 218 17775570840123510019
19862831 5 17489588935307102897
200 152 15195021452628448420
20369508 70 9943510908751483873
20510252 161 18270965760037002667
20645477 70 16200443485185702860
20715895 44 17318705999731818869
21250096 35 10159699083822653236
21524375 3 18187081763138306498
21864079 5 18337950189880707213
221357 26 17060059229222900857
2255824 54 18119247259924170403
23227448 37 18124595537800133092
23366157 5 18116711798990191563
23402539 116 18270955856158981108
23493267 7 18041288741434975474
23557571 272 18056762263177822934
23558518 356 17538290930971050084
23559900 14 18051685552031586219
238 59 16702305667578504614
2637199 183 18335148578782296228
2838139 119 17980480384902232236
298252 57 18334864947848164546
3009799 131 17560808706676386452
3472631 163 18262521527879090500
350125 39 18264769865901285070
394222 165 18187642475187160946
4028521 119 18201725071539135269
44154327 71 18334575702932834397
458136 41 18269001899205150587
463206 1 10879994648811287965
474 4 17458350770632804684
4990 188 17561365079969292981
5104073 3 18263086514195155777
633830 44 18131347480034978805
6442390 28 18412830213356532623
7364860 26 18197775497007963262
7808743 9 18337952423601493120
8863177 126 11886801027438775013
8988823 20 14273749481588372093

> <PUBCHEM_SHAPE_MULTIPOLES>
416.34
8.76
2.52
1.31
4.09
1.03
0.26
-6.21
-1.71
0.68
-0.09
-1.58
-0.11
-0.41

> <PUBCHEM_SHAPE_SELFOVERLAP>
924.05

> <PUBCHEM_SHAPE_VOLUME>
223.7

> <PUBCHEM_COORDINATE_TYPE>
2
5
10

$$$$
