70698035
  -OEChem-08312011503D

 56 60  0     1  0  0  0  0  0999 V2000
   -1.6261    1.0634    1.4436 O   0  0  0  0  0  0  0  0  0  0  0  0
    2.2188    1.2428   -1.1044 O   0  0  0  0  0  0  0  0  0  0  0  0
   -0.7674   -0.0323    3.2851 O   0  0  0  0  0  0  0  0  0  0  0  0
    0.1381    1.6563   -1.9777 O   0  0  0  0  0  0  0  0  0  0  0  0
   -1.7718   -0.7934   -0.0813 C   0  0  1  0  0  0  0  0  0  0  0  0
   -0.6636   -1.2105   -1.1241 C   0  0  2  0  0  0  0  0  0  0  0  0
   -0.4504   -2.7817   -0.9885 C   0  0  2  0  0  0  0  0  0  0  0  0
   -1.2710   -3.3346    0.2237 C   0  0  2  0  0  0  0  0  0  0  0  0
   -3.0524   -1.6307   -0.3582 C   0  0  0  0  0  0  0  0  0  0  0  0
   -2.7664   -3.1331   -0.1254 C   0  0  0  0  0  0  0  0  0  0  0  0
   -1.2757   -1.2067    1.2660 C   0  0  0  0  0  0  0  0  0  0  0  0
    1.0224   -3.2471   -0.9633 C   0  0  0  0  0  0  0  0  0  0  0  0
   -0.9957   -2.4980    1.4577 C   0  0  0  0  0  0  0  0  0  0  0  0
    0.6278   -0.4619   -0.9864 C   0  0  0  0  0  0  0  0  0  0  0  0
   -2.0378    0.6537    0.1590 C   0  0  0  0  0  0  0  0  0  0  0  0
    1.9735   -2.3636   -0.1527 C   0  0  0  0  0  0  0  0  0  0  0  0
    1.7821   -0.9402   -0.5342 C   0  0  0  0  0  0  0  0  0  0  0  0
   -1.1787   -0.0365    2.1381 C   0  0  0  0  0  0  0  0  0  0  0  0
    0.9216    0.9123   -1.4112 C   0  0  0  0  0  0  0  0  0  0  0  0
   -2.6584    1.5019   -0.6677 C   0  0  0  0  0  0  0  0  0  0  0  0
    2.7655    0.0864   -0.5603 C   0  0  0  0  0  0  0  0  0  0  0  0
   -2.8935    2.9517   -0.3611 C   0  0  0  0  0  0  0  0  0  0  0  0
    4.0350    0.0290   -0.1480 C   0  0  0  0  0  0  0  0  0  0  0  0
   -4.3847    3.2884   -0.3788 C   0  0  0  0  0  0  0  0  0  0  0  0
    4.9953    1.1802   -0.2216 C   0  0  0  0  0  0  0  0  0  0  0  0
   -4.6249    4.7632   -0.0955 C   0  0  0  0  0  0  0  0  0  0  0  0
    5.4932    1.5784    1.1680 C   0  0  0  0  0  0  0  0  0  0  0  0
    6.4453    2.7624    1.0992 C   0  0  0  0  0  0  0  0  0  0  0  0
   -1.0444   -1.0167   -2.1369 H   0  0  0  0  0  0  0  0  0  0  0  0
   -0.8846   -3.2398   -1.8902 H   0  0  0  0  0  0  0  0  0  0  0  0
   -1.0632   -4.3933    0.4085 H   0  0  0  0  0  0  0  0  0  0  0  0
   -3.3937   -1.4761   -1.3897 H   0  0  0  0  0  0  0  0  0  0  0  0
   -3.8824   -1.3199    0.2907 H   0  0  0  0  0  0  0  0  0  0  0  0
   -3.4000   -3.5061    0.6895 H   0  0  0  0  0  0  0  0  0  0  0  0
   -3.0368   -3.7074   -1.0194 H   0  0  0  0  0  0  0  0  0  0  0  0
    1.3824   -3.2637   -2.0022 H   0  0  0  0  0  0  0  0  0  0  0  0
    1.0909   -4.2830   -0.6100 H   0  0  0  0  0  0  0  0  0  0  0  0
   -0.6237   -2.9150    2.3827 H   0  0  0  0  0  0  0  0  0  0  0  0
    2.9975   -2.6921   -0.3645 H   0  0  0  0  0  0  0  0  0  0  0  0
    1.8124   -2.4908    0.9229 H   0  0  0  0  0  0  0  0  0  0  0  0
   -2.9871    1.1463   -1.6412 H   0  0  0  0  0  0  0  0  0  0  0  0
   -2.4653    3.2383    0.6061 H   0  0  0  0  0  0  0  0  0  0  0  0
   -2.3742    3.5489   -1.1206 H   0  0  0  0  0  0  0  0  0  0  0  0
    4.4275   -0.8949    0.2698 H   0  0  0  0  0  0  0  0  0  0  0  0
   -4.8172    3.0368   -1.3549 H   0  0  0  0  0  0  0  0  0  0  0  0
   -4.9133    2.6882    0.3718 H   0  0  0  0  0  0  0  0  0  0  0  0
    5.8466    0.8783   -0.8439 H   0  0  0  0  0  0  0  0  0  0  0  0
    4.5445    2.0508   -0.7116 H   0  0  0  0  0  0  0  0  0  0  0  0
   -4.1368    5.3916   -0.8472 H   0  0  0  0  0  0  0  0  0  0  0  0
   -5.6970    4.9827   -0.1133 H   0  0  0  0  0  0  0  0  0  0  0  0
   -4.2376    5.0416    0.8899 H   0  0  0  0  0  0  0  0  0  0  0  0
    6.0055    0.7323    1.6419 H   0  0  0  0  0  0  0  0  0  0  0  0
    4.6435    1.8409    1.8102 H   0  0  0  0  0  0  0  0  0  0  0  0
    5.9518    3.6384    0.6665 H   0  0  0  0  0  0  0  0  0  0  0  0
    6.7914    3.0290    2.1027 H   0  0  0  0  0  0  0  0  0  0  0  0
    7.3225    2.5250    0.4890 H   0  0  0  0  0  0  0  0  0  0  0  0
  1 15  1  0  0  0  0
  1 18  1  0  0  0  0
  2 19  1  0  0  0  0
  2 21  1  0  0  0  0
  3 18  2  0  0  0  0
  4 19  2  0  0  0  0
  5  6  1  0  0  0  0
  5  9  1  0  0  0  0
  5 11  1  0  0  0  0
  5 15  1  0  0  0  0
  6  7  1  0  0  0  0
  6 14  1  0  0  0  0
  6 29  1  0  0  0  0
  7  8  1  0  0  0  0
  7 12  1  0  0  0  0
  7 30  1  0  0  0  0
  8 10  1  0  0  0  0
  8 13  1  0  0  0  0
  8 31  1  0  0  0  0
  9 10  1  0  0  0  0
  9 32  1  0  0  0  0
  9 33  1  0  0  0  0
 10 34  1  0  0  0  0
 10 35  1  0  0  0  0
 11 13  2  0  0  0  0
 11 18  1  0  0  0  0
 12 16  1  0  0  0  0
 12 36  1  0  0  0  0
 12 37  1  0  0  0  0
 13 38  1  0  0  0  0
 14 17  2  0  0  0  0
 14 19  1  0  0  0  0
 15 20  2  0  0  0  0
 16 17  1  0  0  0  0
 16 39  1  0  0  0  0
 16 40  1  0  0  0  0
 17 21  1  0  0  0  0
 20 22  1  0  0  0  0
 20 41  1  0  0  0  0
 21 23  2  0  0  0  0
 22 24  1  0  0  0  0
 22 42  1  0  0  0  0
 22 43  1  0  0  0  0
 23 25  1  0  0  0  0
 23 44  1  0  0  0  0
 24 26  1  0  0  0  0
 24 45  1  0  0  0  0
 24 46  1  0  0  0  0
 25 27  1  0  0  0  0
 25 47  1  0  0  0  0
 25 48  1  0  0  0  0
 26 49  1  0  0  0  0
 26 50  1  0  0  0  0
 26 51  1  0  0  0  0
 27 28  1  0  0  0  0
 27 52  1  0  0  0  0
 27 53  1  0  0  0  0
 28 54  1  0  0  0  0
 28 55  1  0  0  0  0
 28 56  1  0  0  0  0
M  END
> <PUBCHEM_COMPOUND_CID>
70698035

> <PUBCHEM_CONFORMER_RMSD>
0.8

> <PUBCHEM_CONFORMER_DIVERSEORDER>
1
2
4
3
7
6
5
8

> <PUBCHEM_MMFF94_PARTIAL_CHARGES>
23
1 -0.23
11 -0.12
13 -0.29
14 -0.12
15 -0.06
16 0.14
17 -0.14
18 0.71
19 0.71
2 -0.23
20 -0.29
21 0.08
22 0.14
23 -0.29
25 0.14
3 -0.57
38 0.15
4 -0.57
41 0.15
44 0.15
5 0.28
6 0.14
8 0.14

> <PUBCHEM_EFFECTIVE_ROTOR_COUNT>
5.2

> <PUBCHEM_PHARMACOPHORE_FEATURES>
8
1 26 hydrophobe
1 28 hydrophobe
1 3 acceptor
1 4 acceptor
5 1 5 11 15 18 rings
5 2 14 17 19 21 rings
6 6 7 12 14 16 17 rings
8 5 6 7 8 9 10 11 13 rings

> <PUBCHEM_HEAVY_ATOM_COUNT>
28

> <PUBCHEM_ATOM_DEF_STEREO_COUNT>
4

> <PUBCHEM_ATOM_UDEF_STEREO_COUNT>
0

> <PUBCHEM_BOND_DEF_STEREO_COUNT>
2

> <PUBCHEM_BOND_UDEF_STEREO_COUNT>
0

> <PUBCHEM_ISOTOPIC_ATOM_COUNT>
0

> <PUBCHEM_COMPONENT_COUNT>
1

> <PUBCHEM_CACTVS_TAUTO_COUNT>
3

> <PUBCHEM_CONFORMER_ID>
0436C43300000001

> <PUBCHEM_MMFF94_ENERGY>
57.9862

> <PUBCHEM_FEATURE_SELFOVERLAP>
40.774

> <PUBCHEM_SHAPE_FINGERPRINT>
10675989 125 17910110209735574336
10863032 1 18338233752417427599
10930396 42 17623820802655894834
10948715 1 18264770969671060775
11135609 127 17688575084466425045
11370993 70 18340202990469082876
11578080 2 18342458119230790064
12107183 9 18191008025188669016
12156800 1 17542731729617675639
12633257 1 16515689948637620820
12788726 201 18117011081021825359
13004483 165 17977103788111612191
13140716 1 17902243534782271975
13994607 96 17130995420279599464
14142880 1 18334848459125772078
15163728 17 18269545061843624785
16945 1 18262817270816500215
17492 54 15984522443473451312
20600515 1 17412769545430419315
20691752 17 14716542304565952309
21033648 29 18337680724018048328
22956985 138 15750897504993943222
23558518 356 18260277326026036287
2748010 2 17901417531046045975
376196 1 18269550537921074126
469060 322 18050586323571257914
484985 159 15141227880225044520
495365 180 18048041765790583029
5104073 3 18190156024258460984
5895379 119 16323423499875695849
9981440 41 18410291410816080896

> <PUBCHEM_SHAPE_MULTIPOLES>
552.75
8.88
5.05
1.78
13.62
2.09
1.2
12.94
1.67
-5.55
-0.42
-0.03
0.03
1.51

> <PUBCHEM_SHAPE_SELFOVERLAP>
1214.075

> <PUBCHEM_SHAPE_VOLUME>
298.1

> <PUBCHEM_COORDINATE_TYPE>
2
5
10

$$$$
