3085257
  -OEChem-08312012003D

 30 31  0     1  0  0  0  0  0999 V2000
   -0.4666   -1.3557   -0.5197 O   0  0  0  0  0  0  0  0  0  0  0  0
    1.1000   -2.8770    0.2133 O   0  0  0  0  0  0  0  0  0  0  0  0
   -0.5024    0.0729   -0.7123 C   0  0  2  0  0  0  0  0  0  0  0  0
    0.8604    0.4954   -0.3251 C   0  0  0  0  0  0  0  0  0  0  0  0
   -1.6039    0.6570    0.1567 C   0  0  0  0  0  0  0  0  0  0  0  0
    1.3750    1.8960   -0.3576 C   0  0  0  0  0  0  0  0  0  0  0  0
    1.6001   -0.5429    0.0531 C   0  0  0  0  0  0  0  0  0  0  0  0
   -2.9821    0.1524   -0.2705 C   0  0  0  0  0  0  0  0  0  0  0  0
    2.8728    2.0225    0.0188 C   0  0  0  0  0  0  0  0  0  0  0  0
    0.7638   -1.7374   -0.0560 C   0  0  0  0  0  0  0  0  0  0  0  0
   -4.0838    0.7153    0.6272 C   0  0  0  0  0  0  0  0  0  0  0  0
    2.9573   -0.4426    0.4791 C   0  0  0  0  0  0  0  0  0  0  0  0
    3.5620    0.7550    0.4669 C   0  0  0  0  0  0  0  0  0  0  0  0
   -5.4526    0.1889    0.2262 C   0  0  0  0  0  0  0  0  0  0  0  0
   -0.6853    0.2699   -1.7746 H   0  0  0  0  0  0  0  0  0  0  0  0
   -1.5877    1.7522    0.1012 H   0  0  0  0  0  0  0  0  0  0  0  0
   -1.4400    0.3805    1.2067 H   0  0  0  0  0  0  0  0  0  0  0  0
    1.2239    2.3167   -1.3590 H   0  0  0  0  0  0  0  0  0  0  0  0
    0.7869    2.5125    0.3330 H   0  0  0  0  0  0  0  0  0  0  0  0
   -3.1732    0.4401   -1.3115 H   0  0  0  0  0  0  0  0  0  0  0  0
   -3.0106   -0.9430   -0.2286 H   0  0  0  0  0  0  0  0  0  0  0  0
    2.9731    2.7714    0.8142 H   0  0  0  0  0  0  0  0  0  0  0  0
    3.4208    2.4203   -0.8447 H   0  0  0  0  0  0  0  0  0  0  0  0
   -4.0872    1.8100    0.5703 H   0  0  0  0  0  0  0  0  0  0  0  0
   -3.8886    0.4450    1.6716 H   0  0  0  0  0  0  0  0  0  0  0  0
    3.4840   -1.3323    0.8032 H   0  0  0  0  0  0  0  0  0  0  0  0
    4.5975    0.8323    0.7855 H   0  0  0  0  0  0  0  0  0  0  0  0
   -5.4925   -0.9021    0.3060 H   0  0  0  0  0  0  0  0  0  0  0  0
   -5.6931    0.4673   -0.8048 H   0  0  0  0  0  0  0  0  0  0  0  0
   -6.2253    0.6057    0.8798 H   0  0  0  0  0  0  0  0  0  0  0  0
  1  3  1  0  0  0  0
  1 10  1  0  0  0  0
  2 10  2  0  0  0  0
  3  4  1  0  0  0  0
  3  5  1  0  0  0  0
  3 15  1  0  0  0  0
  4  6  1  0  0  0  0
  4  7  2  0  0  0  0
  5  8  1  0  0  0  0
  5 16  1  0  0  0  0
  5 17  1  0  0  0  0
  6  9  1  0  0  0  0
  6 18  1  0  0  0  0
  6 19  1  0  0  0  0
  7 10  1  0  0  0  0
  7 12  1  0  0  0  0
  8 11  1  0  0  0  0
  8 20  1  0  0  0  0
  8 21  1  0  0  0  0
  9 13  1  0  0  0  0
  9 22  1  0  0  0  0
  9 23  1  0  0  0  0
 11 14  1  0  0  0  0
 11 24  1  0  0  0  0
 11 25  1  0  0  0  0
 12 13  2  0  0  0  0
 12 26  1  0  0  0  0
 13 27  1  0  0  0  0
 14 28  1  0  0  0  0
 14 29  1  0  0  0  0
 14 30  1  0  0  0  0
M  END
> <PUBCHEM_COMPOUND_CID>
3085257

> <PUBCHEM_CONFORMER_RMSD>
0.6

> <PUBCHEM_CONFORMER_DIVERSEORDER>
1
6
4
5
2
3

> <PUBCHEM_MMFF94_PARTIAL_CHARGES>
12
1 -0.43
10 0.71
12 -0.15
13 -0.29
2 -0.57
26 0.15
27 0.15
3 0.42
4 -0.28
6 0.14
7 0.01
9 0.14

> <PUBCHEM_EFFECTIVE_ROTOR_COUNT>
3.8

> <PUBCHEM_PHARMACOPHORE_FEATURES>
4
1 14 hydrophobe
1 2 acceptor
5 1 3 4 7 10 rings
6 4 6 7 9 12 13 rings

> <PUBCHEM_HEAVY_ATOM_COUNT>
14

> <PUBCHEM_ATOM_DEF_STEREO_COUNT>
1

> <PUBCHEM_ATOM_UDEF_STEREO_COUNT>
0

> <PUBCHEM_BOND_DEF_STEREO_COUNT>
0

> <PUBCHEM_BOND_UDEF_STEREO_COUNT>
0

> <PUBCHEM_ISOTOPIC_ATOM_COUNT>
0

> <PUBCHEM_COMPONENT_COUNT>
1

> <PUBCHEM_CACTVS_TAUTO_COUNT>
1

> <PUBCHEM_CONFORMER_ID>
002F13C900000001

> <PUBCHEM_MMFF94_ENERGY>
10.9074

> <PUBCHEM_FEATURE_SELFOVERLAP>
20.37

> <PUBCHEM_SHAPE_FINGERPRINT>
10219947 1 18335137583381318148
10465860 228 18271252607896585097
10498660 4 14907633220905809947
10980938 120 18410290281092014613
11471102 20 18410290294193363341
12251169 10 18261109686128841257
12346645 6 18410293596859540749
13140716 1 18337383963125429290
13380535 76 18335984246226885739
13380536 305 18410018749428883036
14251717 144 18410854356685602589
14252887 29 18041007198260559697
15502708 68 18409443674381871246
15775835 57 18201720690735959217
15906896 17 17912078657729336774
16945 1 18337377258781752422
18186145 218 18341608239449475796
20279233 1 17821736018407943643
204376 136 18337674225515738397
20645477 70 18339074875092468695
20871998 22 17909267983907344710
21524375 3 18272934963586955885
21637258 2 15141227803295220488
22854114 111 18411702080203599253
22854114 59 18408885140050592561
23402539 116 16056591062723913940
23532345 1 18409733946105803481
23557571 272 17095520644209008093
23558518 356 17613715242735136312
2748010 2 18336262461507885734
276578 36 18344146994533465730
293599 30 18337113479387351556
33824 294 18335139774183975875
4047638 21 17346598594897599312
42630746 31 18413390930116396495
449060 62 18343023285297489833
474 4 18411420648065895849
6333272 397 18411702110099429001
633830 44 18272655679064795581
7364860 26 18271529684621173342
81228 2 17543614787710225634
81539 233 18334013891124433183
8272917 22 18339929216790584093
9999458 23 18334580144171455950

> <PUBCHEM_SHAPE_MULTIPOLES>
276.37
7.65
2.1
0.75
11.39
0.97
0
-2.66
1.77
-1.82
-0.01
0.05
-0.04
-0.24

> <PUBCHEM_SHAPE_SELFOVERLAP>
573.872

> <PUBCHEM_SHAPE_VOLUME>
159.4

> <PUBCHEM_COORDINATE_TYPE>
2
5
10

$$$$
