13965088
  -OEChem-08312012333D

 32 33  0     1  0  0  0  0  0999 V2000
    0.9914   -1.3492   -0.1380 O   0  0  0  0  0  0  0  0  0  0  0  0
   -3.2724    1.1355   -1.2225 O   0  0  0  0  0  0  0  0  0  0  0  0
   -3.3056   -1.4107   -0.2678 O   0  0  0  0  0  0  0  0  0  0  0  0
   -0.7074   -2.8604    0.2139 O   0  0  0  0  0  0  0  0  0  0  0  0
   -3.1481    0.9722    0.1921 C   0  0  1  0  0  0  0  0  0  0  0  0
   -2.6089   -0.4395    0.5022 C   0  0  2  0  0  0  0  0  0  0  0  0
   -2.2103    2.0580    0.7433 C   0  0  0  0  0  0  0  0  0  0  0  0
   -0.7808    1.9419    0.1749 C   0  0  0  0  0  0  0  0  0  0  0  0
   -0.3331    0.5202    0.0849 C   0  0  0  0  0  0  0  0  0  0  0  0
   -1.1489   -0.5177    0.2406 C   0  0  0  0  0  0  0  0  0  0  0  0
    0.9848    0.0433   -0.1575 C   0  0  0  0  0  0  0  0  0  0  0  0
   -0.3104   -1.7110    0.1121 C   0  0  0  0  0  0  0  0  0  0  0  0
    2.0920    0.7570   -0.3798 C   0  0  0  0  0  0  0  0  0  0  0  0
    3.4445    0.1549   -0.6275 C   0  0  0  0  0  0  0  0  0  0  0  0
    4.4677    0.6464    0.3969 C   0  0  0  0  0  0  0  0  0  0  0  0
    5.8454    0.0592    0.1324 C   0  0  0  0  0  0  0  0  0  0  0  0
   -4.1526    1.0891    0.6138 H   0  0  0  0  0  0  0  0  0  0  0  0
   -2.7856   -0.6611    1.5617 H   0  0  0  0  0  0  0  0  0  0  0  0
   -2.1746    1.9827    1.8375 H   0  0  0  0  0  0  0  0  0  0  0  0
   -2.6012    3.0521    0.4964 H   0  0  0  0  0  0  0  0  0  0  0  0
   -0.1045    2.5221    0.8133 H   0  0  0  0  0  0  0  0  0  0  0  0
   -0.7485    2.3903   -0.8258 H   0  0  0  0  0  0  0  0  0  0  0  0
    2.0380    1.8430   -0.3995 H   0  0  0  0  0  0  0  0  0  0  0  0
   -3.8445    0.4195   -1.5478 H   0  0  0  0  0  0  0  0  0  0  0  0
   -3.0133   -2.2904    0.0261 H   0  0  0  0  0  0  0  0  0  0  0  0
    3.4099   -0.9405   -0.6119 H   0  0  0  0  0  0  0  0  0  0  0  0
    3.7677    0.4442   -1.6350 H   0  0  0  0  0  0  0  0  0  0  0  0
    4.1478    0.3691    1.4088 H   0  0  0  0  0  0  0  0  0  0  0  0
    4.5344    1.7408    0.3692 H   0  0  0  0  0  0  0  0  0  0  0  0
    5.8236   -1.0338    0.1892 H   0  0  0  0  0  0  0  0  0  0  0  0
    6.5616    0.4236    0.8755 H   0  0  0  0  0  0  0  0  0  0  0  0
    6.2098    0.3451   -0.8595 H   0  0  0  0  0  0  0  0  0  0  0  0
  1 11  1  0  0  0  0
  1 12  1  0  0  0  0
  2  5  1  0  0  0  0
  2 24  1  0  0  0  0
  3  6  1  0  0  0  0
  3 25  1  0  0  0  0
  4 12  2  0  0  0  0
  5  6  1  0  0  0  0
  5  7  1  0  0  0  0
  5 17  1  0  0  0  0
  6 10  1  0  0  0  0
  6 18  1  0  0  0  0
  7  8  1  0  0  0  0
  7 19  1  0  0  0  0
  7 20  1  0  0  0  0
  8  9  1  0  0  0  0
  8 21  1  0  0  0  0
  8 22  1  0  0  0  0
  9 10  2  0  0  0  0
  9 11  1  0  0  0  0
 10 12  1  0  0  0  0
 11 13  2  0  0  0  0
 13 14  1  0  0  0  0
 13 23  1  0  0  0  0
 14 15  1  0  0  0  0
 14 26  1  0  0  0  0
 14 27  1  0  0  0  0
 15 16  1  0  0  0  0
 15 28  1  0  0  0  0
 15 29  1  0  0  0  0
 16 30  1  0  0  0  0
 16 31  1  0  0  0  0
 16 32  1  0  0  0  0
M  END
> <PUBCHEM_COMPOUND_CID>
13965088

> <PUBCHEM_CONFORMER_RMSD>
0.6

> <PUBCHEM_CONFORMER_DIVERSEORDER>
1
6
10
7
3
2
9
4
8
5

> <PUBCHEM_MMFF94_PARTIAL_CHARGES>
16
1 -0.23
10 -0.12
11 0.08
12 0.71
13 -0.29
14 0.14
2 -0.68
23 0.15
24 0.4
25 0.4
3 -0.68
4 -0.57
5 0.28
6 0.42
8 0.14
9 -0.14

> <PUBCHEM_EFFECTIVE_ROTOR_COUNT>
3

> <PUBCHEM_PHARMACOPHORE_FEATURES>
8
1 16 hydrophobe
1 2 acceptor
1 2 donor
1 3 acceptor
1 3 donor
1 4 acceptor
5 1 9 10 11 12 rings
6 5 6 7 8 9 10 rings

> <PUBCHEM_HEAVY_ATOM_COUNT>
16

> <PUBCHEM_ATOM_DEF_STEREO_COUNT>
2

> <PUBCHEM_ATOM_UDEF_STEREO_COUNT>
0

> <PUBCHEM_BOND_DEF_STEREO_COUNT>
1

> <PUBCHEM_BOND_UDEF_STEREO_COUNT>
0

> <PUBCHEM_ISOTOPIC_ATOM_COUNT>
0

> <PUBCHEM_COMPONENT_COUNT>
1

> <PUBCHEM_CACTVS_TAUTO_COUNT>
1

> <PUBCHEM_CONFORMER_ID>
00D5172000000001

> <PUBCHEM_MMFF94_ENERGY>
15.9408

> <PUBCHEM_FEATURE_SELFOVERLAP>
40.678

> <PUBCHEM_SHAPE_FINGERPRINT>
11132069 177 18411144610375298588
11315181 36 18335140904330119320
11543360 7 15985095315070026716
13140716 1 18050860110387326667
13380535 76 18413110537408309806
13583140 156 17095245821456429344
13862211 1 18267025140607757043
14614273 12 18187929426579469853
14897335 6 18410292476226569246
15042514 8 18265060317223098603
15536298 74 18269840822503806782
16945 1 18338532939706995183
17804303 29 18412268367620909704
18186145 218 18269005201939776428
200 152 16559031584544522580
20112054 60 18341899584181924000
20300324 65 17989201542758835157
20510252 161 18272657839570352504
20645477 56 18411425016342852932
20645477 70 16629978638069269052
21339142 51 18409728503733496729
21524375 3 18408325462624711594
2306618 200 18113334198164408621
2334 1 18409738330792684859
23402539 116 18342451569009693668
23557571 272 18131079259000016502
23559900 14 18271812315961860372
2748010 2 18265351537606684559
2838139 119 16733529547397786181
3071541 236 18334296504336282978
351380 180 18202841050678380504
43471831 8 18335423422087402578
54173680 148 18121504810635501602
559249 180 18187920652309508642
5706482 22 18410014325185326194
6333449 129 18412829096432582785
69090 78 18130786767901729014
7364860 26 17981611459347165934
9709674 26 18343592849885928982

> <PUBCHEM_SHAPE_MULTIPOLES>
305.8
8.09
2.14
0.78
12.69
0.8
0.07
-1.72
-0.04
-1.76
-0.23
-0.2
-0.16
0.02

> <PUBCHEM_SHAPE_SELFOVERLAP>
642.316

> <PUBCHEM_SHAPE_VOLUME>
173.7

> <PUBCHEM_COORDINATE_TYPE>
2
5
10

$$$$
