15138552
  -OEChem-08312012293D

 34 35  0     1  0  0  0  0  0999 V2000
    0.9309    1.2825   -0.6996 O   0  0  0  0  0  0  0  0  0  0  0  0
   -2.6455    0.9415    1.7419 O   0  0  0  0  0  0  0  0  0  0  0  0
   -3.5848   -0.9205   -1.2279 O   0  0  0  0  0  0  0  0  0  0  0  0
   -0.6197    2.8940   -0.1532 O   0  0  0  0  0  0  0  0  0  0  0  0
   -0.4201   -0.5145   -0.2925 C   0  0  0  0  0  0  0  0  0  0  0  0
    0.9475   -0.1573   -0.7266 C   0  0  2  0  0  0  0  0  0  0  0  0
   -0.9496   -1.9047   -0.1905 C   0  0  0  0  0  0  0  0  0  0  0  0
   -1.1487    0.5683   -0.0306 C   0  0  0  0  0  0  0  0  0  0  0  0
   -2.5803    0.5872    0.3637 C   0  0  1  0  0  0  0  0  0  0  0  0
   -3.2345   -0.7920    0.1496 C   0  0  2  0  0  0  0  0  0  0  0  0
   -2.2989   -1.9466    0.5498 C   0  0  0  0  0  0  0  0  0  0  0  0
    2.0453   -0.6491    0.2026 C   0  0  0  0  0  0  0  0  0  0  0  0
   -0.2934    1.7273   -0.2837 C   0  0  0  0  0  0  0  0  0  0  0  0
    3.4275   -0.2136   -0.2836 C   0  0  0  0  0  0  0  0  0  0  0  0
    4.5256   -0.6812    0.6714 C   0  0  0  0  0  0  0  0  0  0  0  0
    5.8989   -0.2212    0.2092 C   0  0  0  0  0  0  0  0  0  0  0  0
    1.1253   -0.4783   -1.7592 H   0  0  0  0  0  0  0  0  0  0  0  0
   -1.0695   -2.3132   -1.2009 H   0  0  0  0  0  0  0  0  0  0  0  0
   -0.2416   -2.5510    0.3393 H   0  0  0  0  0  0  0  0  0  0  0  0
   -3.1222    1.3453   -0.2137 H   0  0  0  0  0  0  0  0  0  0  0  0
   -4.1585   -0.8584    0.7358 H   0  0  0  0  0  0  0  0  0  0  0  0
   -2.7791   -2.9101    0.3417 H   0  0  0  0  0  0  0  0  0  0  0  0
   -2.1178   -1.9023    1.6314 H   0  0  0  0  0  0  0  0  0  0  0  0
    2.0186   -1.7429    0.2752 H   0  0  0  0  0  0  0  0  0  0  0  0
    1.8879   -0.2505    1.2136 H   0  0  0  0  0  0  0  0  0  0  0  0
    3.6118   -0.6228   -1.2845 H   0  0  0  0  0  0  0  0  0  0  0  0
    3.4687    0.8788   -0.3695 H   0  0  0  0  0  0  0  0  0  0  0  0
    4.5163   -1.7750    0.7425 H   0  0  0  0  0  0  0  0  0  0  0  0
    4.3369   -0.2890    1.6776 H   0  0  0  0  0  0  0  0  0  0  0  0
   -2.3013    1.8466    1.8333 H   0  0  0  0  0  0  0  0  0  0  0  0
   -4.0032   -1.7906   -1.3434 H   0  0  0  0  0  0  0  0  0  0  0  0
    5.9516    0.8712    0.1615 H   0  0  0  0  0  0  0  0  0  0  0  0
    6.1329   -0.6204   -0.7829 H   0  0  0  0  0  0  0  0  0  0  0  0
    6.6690   -0.5681    0.9053 H   0  0  0  0  0  0  0  0  0  0  0  0
  1  6  1  0  0  0  0
  1 13  1  0  0  0  0
  2  9  1  0  0  0  0
  2 30  1  0  0  0  0
  3 10  1  0  0  0  0
  3 31  1  0  0  0  0
  4 13  2  0  0  0  0
  5  6  1  0  0  0  0
  5  7  1  0  0  0  0
  5  8  2  0  0  0  0
  6 12  1  0  0  0  0
  6 17  1  0  0  0  0
  7 11  1  0  0  0  0
  7 18  1  0  0  0  0
  7 19  1  0  0  0  0
  8  9  1  0  0  0  0
  8 13  1  0  0  0  0
  9 10  1  0  0  0  0
  9 20  1  0  0  0  0
 10 11  1  0  0  0  0
 10 21  1  0  0  0  0
 11 22  1  0  0  0  0
 11 23  1  0  0  0  0
 12 14  1  0  0  0  0
 12 24  1  0  0  0  0
 12 25  1  0  0  0  0
 14 15  1  0  0  0  0
 14 26  1  0  0  0  0
 14 27  1  0  0  0  0
 15 16  1  0  0  0  0
 15 28  1  0  0  0  0
 15 29  1  0  0  0  0
 16 32  1  0  0  0  0
 16 33  1  0  0  0  0
 16 34  1  0  0  0  0
M  END
> <PUBCHEM_COMPOUND_CID>
15138552

> <PUBCHEM_CONFORMER_RMSD>
0.6

> <PUBCHEM_CONFORMER_DIVERSEORDER>
1
10
2
9
8
11
4
6
7
3
5

> <PUBCHEM_MMFF94_PARTIAL_CHARGES>
13
1 -0.43
10 0.28
13 0.71
2 -0.68
3 -0.68
30 0.4
31 0.4
4 -0.57
5 -0.28
6 0.42
7 0.14
8 -0.12
9 0.42

> <PUBCHEM_EFFECTIVE_ROTOR_COUNT>
4.2

> <PUBCHEM_PHARMACOPHORE_FEATURES>
8
1 16 hydrophobe
1 2 acceptor
1 2 donor
1 3 acceptor
1 3 donor
1 4 acceptor
5 1 5 6 8 13 rings
6 5 7 8 9 10 11 rings

> <PUBCHEM_HEAVY_ATOM_COUNT>
16

> <PUBCHEM_ATOM_DEF_STEREO_COUNT>
3

> <PUBCHEM_ATOM_UDEF_STEREO_COUNT>
0

> <PUBCHEM_BOND_DEF_STEREO_COUNT>
0

> <PUBCHEM_BOND_UDEF_STEREO_COUNT>
0

> <PUBCHEM_ISOTOPIC_ATOM_COUNT>
0

> <PUBCHEM_COMPONENT_COUNT>
1

> <PUBCHEM_CACTVS_TAUTO_COUNT>
1

> <PUBCHEM_CONFORMER_ID>
00E6FEF800000001

> <PUBCHEM_MMFF94_ENERGY>
10.9132

> <PUBCHEM_FEATURE_SELFOVERLAP>
40.666

> <PUBCHEM_SHAPE_FINGERPRINT>
10366900 7 18341324548813011370
11046707 91 18335419080159880458
11132069 177 18271252620670574180
11680986 33 18051405464075714979
12251169 10 18343305872718047058
124424 183 18114459045698599655
13024252 1 15719393915065266575
13140716 1 18337400447020078720
13214271 11 18271804605572391622
13296909 8 17489874821325964009
13583140 156 14979952553960380942
13897977 58 18410015438362571004
14420673 8 17760644764536899546
15209294 21 17916595232273027696
15375462 189 17967255303774705626
16945 1 18263096456395514423
17804303 29 18413673521837319032
17980427 23 17775290486460830849
18186145 218 11458423574415143862
200 152 17967245399627690854
20510252 161 18270399365583236872
20871998 184 18343300340726511982
21267235 1 18335147517804463970
21637258 2 15647348484411645025
21650355 55 18409729573285627720
22112679 90 18339659921871918949
2297311 6 18341906177758310630
23402539 116 18201430394128505567
23419403 2 17629447982908325985
23557571 272 18272377426120457372
23559900 14 18335132142296109520
2748010 2 18193844970745504039
3009799 131 18339060662797591175
5493415 88 18190745425833886715
7364860 26 18052260896822721973
81228 2 18266192650921813540
90316 7 18335422327049979456

> <PUBCHEM_SHAPE_MULTIPOLES>
305.8
8.12
2.02
0.96
13.45
0.87
0.16
-2.48
1.3
-1.41
-0.01
-0.52
0.04
-0.46

> <PUBCHEM_SHAPE_SELFOVERLAP>
633.627

> <PUBCHEM_SHAPE_VOLUME>
176.6

> <PUBCHEM_COORDINATE_TYPE>
2
5
10

$$$$
