91746582
  -OEChem-08292003113D

 42 44  0     1  0  0  0  0  0999 V2000
    2.9265   -0.1444    1.0928 O   0  0  0  0  0  0  0  0  0  0  0  0
    0.3282   -1.3398   -0.0649 C   0  0  2  0  0  0  0  0  0  0  0  0
    0.5535    0.0364    0.6904 C   0  0  2  0  0  0  0  0  0  0  0  0
   -0.4843    0.6692   -0.3272 C   0  0  1  0  0  0  0  0  0  0  0  0
    0.0740   -0.4068   -1.3157 C   0  0  1  0  0  0  0  0  0  0  0  0
    1.9365    0.6978    0.5016 C   0  0  2  0  0  0  0  0  0  0  0  0
   -1.9981    0.8021   -0.0660 C   0  0  0  0  0  0  0  0  0  0  0  0
    1.3500    0.1213   -1.9922 C   0  0  0  0  0  0  0  0  0  0  0  0
   -0.8491   -2.2236    0.4162 C   0  0  0  0  0  0  0  0  0  0  0  0
    2.2433    0.9129   -1.0066 C   0  0  0  0  0  0  0  0  0  0  0  0
   -2.7102   -0.5504    0.0689 C   0  0  0  0  0  0  0  0  0  0  0  0
    1.5234   -2.3016   -0.2250 C   0  0  0  0  0  0  0  0  0  0  0  0
   -2.0434   -1.5142    1.0317 C   0  0  0  0  0  0  0  0  0  0  0  0
    1.9847    2.0247    1.2690 C   0  0  0  0  0  0  0  0  0  0  0  0
   -2.6296    1.5476   -1.2638 C   0  0  0  0  0  0  0  0  0  0  0  0
   -2.2055    1.6688    1.1909 C   0  0  0  0  0  0  0  0  0  0  0  0
    0.2556    0.0229    1.7438 H   0  0  0  0  0  0  0  0  0  0  0  0
   -0.1836    1.6894   -0.6164 H   0  0  0  0  0  0  0  0  0  0  0  0
   -0.6329   -0.8055   -2.0503 H   0  0  0  0  0  0  0  0  0  0  0  0
    1.0750    0.7802   -2.8254 H   0  0  0  0  0  0  0  0  0  0  0  0
    1.9128   -0.7036   -2.4426 H   0  0  0  0  0  0  0  0  0  0  0  0
   -0.4826   -2.9206    1.1823 H   0  0  0  0  0  0  0  0  0  0  0  0
   -1.1894   -2.8489   -0.4199 H   0  0  0  0  0  0  0  0  0  0  0  0
    3.2967    0.7025   -1.2285 H   0  0  0  0  0  0  0  0  0  0  0  0
    2.1037    1.9757   -1.2486 H   0  0  0  0  0  0  0  0  0  0  0  0
   -2.8033   -1.0355   -0.9117 H   0  0  0  0  0  0  0  0  0  0  0  0
   -3.7399   -0.3764    0.4096 H   0  0  0  0  0  0  0  0  0  0  0  0
    2.4261   -1.8341   -0.6211 H   0  0  0  0  0  0  0  0  0  0  0  0
    1.2679   -3.1179   -0.9108 H   0  0  0  0  0  0  0  0  0  0  0  0
    1.7922   -2.7456    0.7404 H   0  0  0  0  0  0  0  0  0  0  0  0
   -2.7773   -2.2838    1.3044 H   0  0  0  0  0  0  0  0  0  0  0  0
   -1.7688   -1.0241    1.9703 H   0  0  0  0  0  0  0  0  0  0  0  0
    1.8198    1.8595    2.3401 H   0  0  0  0  0  0  0  0  0  0  0  0
    1.2281    2.7337    0.9190 H   0  0  0  0  0  0  0  0  0  0  0  0
    2.9700    2.4948    1.1728 H   0  0  0  0  0  0  0  0  0  0  0  0
   -2.1935    2.5452   -1.3904 H   0  0  0  0  0  0  0  0  0  0  0  0
   -1.7621    1.2168    2.0829 H   0  0  0  0  0  0  0  0  0  0  0  0
   -3.2709    1.8265    1.3920 H   0  0  0  0  0  0  0  0  0  0  0  0
   -3.7100    1.6717   -1.1288 H   0  0  0  0  0  0  0  0  0  0  0  0
   -1.7400    2.6541    1.0705 H   0  0  0  0  0  0  0  0  0  0  0  0
   -2.4671    1.0030   -2.2008 H   0  0  0  0  0  0  0  0  0  0  0  0
    3.7943    0.2757    0.9659 H   0  0  0  0  0  0  0  0  0  0  0  0
  1  6  1  0  0  0  0
  1 42  1  0  0  0  0
  2  3  1  0  0  0  0
  2  5  1  0  0  0  0
  2  9  1  0  0  0  0
  2 12  1  0  0  0  0
  3  4  1  0  0  0  0
  3  6  1  0  0  0  0
  3 17  1  0  0  0  0
  4  5  1  0  0  0  0
  4  7  1  0  0  0  0
  4 18  1  0  0  0  0
  5  8  1  0  0  0  0
  5 19  1  0  0  0  0
  6 10  1  0  0  0  0
  6 14  1  0  0  0  0
  7 11  1  0  0  0  0
  7 15  1  0  0  0  0
  7 16  1  0  0  0  0
  8 10  1  0  0  0  0
  8 20  1  0  0  0  0
  8 21  1  0  0  0  0
  9 13  1  0  0  0  0
  9 22  1  0  0  0  0
  9 23  1  0  0  0  0
 10 24  1  0  0  0  0
 10 25  1  0  0  0  0
 11 13  1  0  0  0  0
 11 26  1  0  0  0  0
 11 27  1  0  0  0  0
 12 28  1  0  0  0  0
 12 29  1  0  0  0  0
 12 30  1  0  0  0  0
 13 31  1  0  0  0  0
 13 32  1  0  0  0  0
 14 33  1  0  0  0  0
 14 34  1  0  0  0  0
 14 35  1  0  0  0  0
 15 36  1  0  0  0  0
 15 39  1  0  0  0  0
 15 41  1  0  0  0  0
 16 37  1  0  0  0  0
 16 38  1  0  0  0  0
 16 40  1  0  0  0  0
M  END
> <PUBCHEM_COMPOUND_CID>
91746582

> <PUBCHEM_CONFORMER_RMSD>
0.6

> <PUBCHEM_CONFORMER_DIVERSEORDER>
1
2
4
3

> <PUBCHEM_MMFF94_PARTIAL_CHARGES>
3
1 -0.68
42 0.4
6 0.28

> <PUBCHEM_EFFECTIVE_ROTOR_COUNT>
1.4

> <PUBCHEM_PHARMACOPHORE_FEATURES>
5
1 1 acceptor
1 1 donor
3 7 15 16 hydrophobe
7 2 3 4 5 6 8 10 rings
8 2 3 4 5 7 9 11 13 rings

> <PUBCHEM_HEAVY_ATOM_COUNT>
16

> <PUBCHEM_ATOM_DEF_STEREO_COUNT>
0

> <PUBCHEM_ATOM_UDEF_STEREO_COUNT>
5

> <PUBCHEM_BOND_DEF_STEREO_COUNT>
0

> <PUBCHEM_BOND_UDEF_STEREO_COUNT>
0

> <PUBCHEM_ISOTOPIC_ATOM_COUNT>
0

> <PUBCHEM_COMPONENT_COUNT>
1

> <PUBCHEM_CACTVS_TAUTO_COUNT>
1

> <PUBCHEM_CONFORMER_ID>
0577F11600000001

> <PUBCHEM_MMFF94_ENERGY>
63.4806

> <PUBCHEM_FEATURE_SELFOVERLAP>
25.596

> <PUBCHEM_SHAPE_FINGERPRINT>
11680611 10 17385447647594412066
12326174 3 17418099771711791782
12423570 1 17750250122470302806
12491281 212 17897191141397577772
13024252 1 12759078665137803522
13027679 85 17544757828721030154
13132413 78 17331970421592295420
13380536 237 18336538352716004983
13538477 17 17677895831959860718
13839132 238 18271259269253665613
13898156 1 17460608149424235206
144361 1 17823160997629453967
14614273 12 18334016133376936573
14817 1 17977950407854474014
15076042 46 18189048857875050978
15490181 7 18271803591981526958
15557651 10 17344910943127391882
15775835 57 18114471135904982597
15852999 172 18116132433897903663
16945 1 18202283636278154291
20082192 1 17822022977520041989
20511035 2 18262806150998178895
21501502 16 18338246976558278867
21947302 44 18131636655513348533
23236772 104 16879928588105860973
2334 1 18336271162948220307
23419403 2 14571204480876687371
23526113 38 17986419783125841398
23559900 14 18271541814790128350
2748010 2 18262526892372110583
5084963 1 18040996254114209521
5337951 7 18126016965716094582
5845 1 17767987672078692087
7364860 26 18198903604506702175
81228 2 18191319375541490099

> <PUBCHEM_SHAPE_MULTIPOLES>
323.4
3.9
2.3
1.52
0.53
0.68
-0.39
-1.19
0.43
0.2
0.51
-0.35
-0.45
0.59

> <PUBCHEM_SHAPE_SELFOVERLAP>
679.036

> <PUBCHEM_SHAPE_VOLUME>
182.4

> <PUBCHEM_COORDINATE_TYPE>
2
5
10

$$$$
