101607233
  -OEChem-09162015333D

 48 51  0     1  0  0  0  0  0999 V2000
    0.8314    1.6871   -1.0816 S   0  0  0  0  0  0  0  0  0  0  0  0
    0.5601    0.8598    2.6514 O   0  0  0  0  0  0  0  0  0  0  0  0
   -3.4159    0.3336    1.6046 O   0  0  0  0  0  0  0  0  0  0  0  0
   -3.6858    4.1150   -1.2169 O   0  0  0  0  0  0  0  0  0  0  0  0
    4.5850   -2.2049   -1.4700 O   0  0  0  0  0  0  0  0  0  0  0  0
    6.7994   -0.8835   -0.4328 O   0  0  0  0  0  0  0  0  0  0  0  0
   -0.6690   -0.2205    0.8836 C   0  0  1  0  0  0  0  0  0  0  0  0
    0.7319    0.1889    1.3871 C   0  0  1  0  0  0  0  0  0  0  0  0
    1.5813    1.1375    0.5014 C   0  0  1  0  0  0  0  0  0  0  0  0
   -1.4475    0.9569    0.3310 C   0  0  0  0  0  0  0  0  0  0  0  0
   -0.6202   -1.3701   -0.1287 C   0  0  0  0  0  0  0  0  0  0  0  0
   -0.8620    1.8681   -0.5616 C   0  0  0  0  0  0  0  0  0  0  0  0
    2.9793    0.5926    0.2499 C   0  0  0  0  0  0  0  0  0  0  0  0
   -2.7957    1.1240    0.6871 C   0  0  0  0  0  0  0  0  0  0  0  0
   -1.9403   -2.0691   -0.2019 C   0  0  0  0  0  0  0  0  0  0  0  0
   -1.6240    2.9180   -1.0904 C   0  0  0  0  0  0  0  0  0  0  0  0
   -3.5451    2.1790    0.1673 C   0  0  0  0  0  0  0  0  0  0  0  0
    3.1497   -0.5704   -0.5012 C   0  0  0  0  0  0  0  0  0  0  0  0
    4.0904    1.2563    0.7697 C   0  0  0  0  0  0  0  0  0  0  0  0
   -2.9596    3.0747   -0.7219 C   0  0  0  0  0  0  0  0  0  0  0  0
   -2.2047   -3.1503    0.6388 C   0  0  0  0  0  0  0  0  0  0  0  0
   -2.9072   -1.6396   -1.1108 C   0  0  0  0  0  0  0  0  0  0  0  0
    4.4315   -1.0695   -0.7328 C   0  0  0  0  0  0  0  0  0  0  0  0
    5.3723    0.7570    0.5383 C   0  0  0  0  0  0  0  0  0  0  0  0
    5.5428   -0.4058   -0.2130 C   0  0  0  0  0  0  0  0  0  0  0  0
   -3.4362   -3.8018    0.5706 C   0  0  0  0  0  0  0  0  0  0  0  0
   -4.1388   -2.2910   -1.1788 C   0  0  0  0  0  0  0  0  0  0  0  0
   -4.4032   -3.3721   -0.3381 C   0  0  0  0  0  0  0  0  0  0  0  0
   -1.1955   -0.5855    1.7771 H   0  0  0  0  0  0  0  0  0  0  0  0
    1.2989   -0.7172    1.6347 H   0  0  0  0  0  0  0  0  0  0  0  0
    1.7032    2.0798    1.0529 H   0  0  0  0  0  0  0  0  0  0  0  0
    0.1404   -2.1029    0.1715 H   0  0  0  0  0  0  0  0  0  0  0  0
   -0.3235   -1.0406   -1.1312 H   0  0  0  0  0  0  0  0  0  0  0  0
    0.1568    0.2262    3.2691 H   0  0  0  0  0  0  0  0  0  0  0  0
   -1.1746    3.6221   -1.7880 H   0  0  0  0  0  0  0  0  0  0  0  0
   -4.5835    2.3193    0.4579 H   0  0  0  0  0  0  0  0  0  0  0  0
    2.2885   -1.0938   -0.9075 H   0  0  0  0  0  0  0  0  0  0  0  0
    3.9752    2.1629    1.3575 H   0  0  0  0  0  0  0  0  0  0  0  0
   -1.4610   -3.4933    1.3532 H   0  0  0  0  0  0  0  0  0  0  0  0
   -2.7125   -0.8085   -1.7833 H   0  0  0  0  0  0  0  0  0  0  0  0
    6.2293    1.2839    0.9492 H   0  0  0  0  0  0  0  0  0  0  0  0
   -4.3411    0.6132    1.7109 H   0  0  0  0  0  0  0  0  0  0  0  0
   -3.6425   -4.6432    1.2256 H   0  0  0  0  0  0  0  0  0  0  0  0
   -4.8906   -1.9581   -1.8884 H   0  0  0  0  0  0  0  0  0  0  0  0
   -5.3620   -3.8795   -0.3914 H   0  0  0  0  0  0  0  0  0  0  0  0
   -3.1226    4.6375   -1.8134 H   0  0  0  0  0  0  0  0  0  0  0  0
    3.7091   -2.5252   -1.7459 H   0  0  0  0  0  0  0  0  0  0  0  0
    7.4419   -0.2963    0.0013 H   0  0  0  0  0  0  0  0  0  0  0  0
  1  9  1  0  0  0  0
  1 12  1  0  0  0  0
  2  8  1  0  0  0  0
  2 34  1  0  0  0  0
  3 14  1  0  0  0  0
  3 42  1  0  0  0  0
  4 20  1  0  0  0  0
  4 46  1  0  0  0  0
  5 23  1  0  0  0  0
  5 47  1  0  0  0  0
  6 25  1  0  0  0  0
  6 48  1  0  0  0  0
  7  8  1  0  0  0  0
  7 10  1  0  0  0  0
  7 11  1  0  0  0  0
  7 29  1  0  0  0  0
  8  9  1  0  0  0  0
  8 30  1  0  0  0  0
  9 13  1  0  0  0  0
  9 31  1  0  0  0  0
 10 12  1  0  0  0  0
 10 14  2  0  0  0  0
 11 15  1  0  0  0  0
 11 32  1  0  0  0  0
 11 33  1  0  0  0  0
 12 16  2  0  0  0  0
 13 18  2  0  0  0  0
 13 19  1  0  0  0  0
 14 17  1  0  0  0  0
 15 21  2  0  0  0  0
 15 22  1  0  0  0  0
 16 20  1  0  0  0  0
 16 35  1  0  0  0  0
 17 20  2  0  0  0  0
 17 36  1  0  0  0  0
 18 23  1  0  0  0  0
 18 37  1  0  0  0  0
 19 24  2  0  0  0  0
 19 38  1  0  0  0  0
 21 26  1  0  0  0  0
 21 39  1  0  0  0  0
 22 27  2  0  0  0  0
 22 40  1  0  0  0  0
 23 25  2  0  0  0  0
 24 25  1  0  0  0  0
 24 41  1  0  0  0  0
 26 28  2  0  0  0  0
 26 43  1  0  0  0  0
 27 28  1  0  0  0  0
 27 44  1  0  0  0  0
 28 45  1  0  0  0  0
M  END
> <PUBCHEM_COMPOUND_CID>
101607233

> <PUBCHEM_CONFORMER_RMSD>
0.8

> <PUBCHEM_CONFORMER_DIVERSEORDER>
1
25
11
21
18
30
6
16
22
26
9
14
31
12
5
10
19
20
15
8
28
23
13
7
4
17
2
29
27
24
3

> <PUBCHEM_MMFF94_PARTIAL_CHARGES>
43
1 -0.33
10 -0.14
11 0.14
12 0.1
13 -0.14
14 0.08
15 -0.14
16 -0.15
17 -0.15
18 -0.15
19 -0.15
2 -0.68
20 0.08
21 -0.15
22 -0.15
23 0.08
24 -0.15
25 0.08
26 -0.15
27 -0.15
28 -0.15
3 -0.53
34 0.4
35 0.15
36 0.15
37 0.15
38 0.15
39 0.15
4 -0.53
40 0.15
41 0.15
42 0.45
43 0.15
44 0.15
45 0.15
46 0.45
47 0.45
48 0.45
5 -0.53
6 -0.53
7 0.14
8 0.28
9 0.37

> <PUBCHEM_EFFECTIVE_ROTOR_COUNT>
3.8

> <PUBCHEM_PHARMACOPHORE_FEATURES>
10
1 2 acceptor
1 2 donor
1 3 donor
1 4 donor
1 5 donor
1 6 donor
6 1 7 8 9 10 12 rings
6 10 12 14 16 17 20 rings
6 13 18 19 23 24 25 rings
6 15 21 22 26 27 28 rings

> <PUBCHEM_HEAVY_ATOM_COUNT>
28

> <PUBCHEM_ATOM_DEF_STEREO_COUNT>
2

> <PUBCHEM_ATOM_UDEF_STEREO_COUNT>
1

> <PUBCHEM_BOND_DEF_STEREO_COUNT>
0

> <PUBCHEM_BOND_UDEF_STEREO_COUNT>
0

> <PUBCHEM_ISOTOPIC_ATOM_COUNT>
0

> <PUBCHEM_COMPONENT_COUNT>
1

> <PUBCHEM_CACTVS_TAUTO_COUNT>
480

> <PUBCHEM_CONFORMER_ID>
060E674100000001

> <PUBCHEM_MMFF94_ENERGY>
85.5767

> <PUBCHEM_FEATURE_SELFOVERLAP>
50.771

> <PUBCHEM_SHAPE_FINGERPRINT>
10165383 225 18270687437867526561
10254770 206 17254266831574361490
10319926 262 9078839537895224532
107951 10 18268142055305165533
11014199 57 18118692251275205683
12035759 4 17969205871830547131
12422481 6 18128563572691957371
12788726 201 18261379109232199483
13004483 165 18122897887482827015
13544653 18 17987522674682193970
13583140 156 17632003247978665624
13690498 29 18271259304177751214
13757389 114 18262809445254309644
140371 6 17685496841784545153
14251751 93 18408886200574997569
14508225 48 18266168616785913821
14790565 3 17834957464721480769
14866123 147 18410011018609355235
14910302 57 18342729737062078928
15042514 8 18337114557450094297
15131766 46 14492200451462774686
15230672 131 18046630002326743902
17357779 13 18199453545267824199
17909252 39 17975980078701835556
1813 80 18193839481798612987
19141452 34 18412271613930415840
19301676 85 17406564602057963046
21033648 29 18267856199257156184
21236236 1 18343020007994875806
21307412 95 17841447942622736422
21703447 108 18194951058327049664
22393880 68 18411418367976325246
23175994 123 18047465910141282775
23227448 37 18411419466939028318
23419403 2 17345175878327678577
23559900 14 18200019789155407985
244849 19 17559931342692755816
3027735 51 18413671309560727971
3103668 31 18260817225569929909
3729539 64 17620205230266834382
38695281 34 17976257941959320557
4015057 19 17489011687613704200
4403749 210 18200858661789766506
44062 13 18339928121716770718
508706 21 18411135818793508822
5104073 3 18202561796431708818
513202 73 18262532450086529755
59755656 520 18264480694206368109
7164475 11 18264210381717569965
7399639 24 17839728598289039616
7970288 3 18051129495221775767
9709674 26 18413672426641868046

> <PUBCHEM_SHAPE_MULTIPOLES>
550.73
11.3
4.47
1.42
16.75
0.35
0.44
-5.96
-1.99
-7.93
-1.36
-0.14
0.22
1.29

> <PUBCHEM_SHAPE_SELFOVERLAP>
1198.427

> <PUBCHEM_SHAPE_VOLUME>
299.9

> <PUBCHEM_COORDINATE_TYPE>
2
5
10

$$$$
