101607232
  -OEChem-09162015343D

 48 51  0     1  0  0  0  0  0999 V2000
    0.1487   -2.5418    0.4180 S   0  0  0  0  0  0  0  0  0  0  0  0
   -0.2368   -0.5047   -1.9341 O   0  0  0  0  0  0  0  0  0  0  0  0
    4.0737    0.7729   -0.6989 O   0  0  0  0  0  0  0  0  0  0  0  0
    5.0872   -3.7650    0.2201 O   0  0  0  0  0  0  0  0  0  0  0  0
   -5.1572    0.7408   -0.8748 O   0  0  0  0  0  0  0  0  0  0  0  0
   -6.3420   -1.6391   -0.0638 O   0  0  0  0  0  0  0  0  0  0  0  0
    1.2944    0.4485   -0.3182 C   0  0  2  0  0  0  0  0  0  0  0  0
   -0.1631    0.0417   -0.6146 C   0  0  2  0  0  0  0  0  0  0  0  0
   -0.7329   -0.9410    0.4199 C   0  0  1  0  0  0  0  0  0  0  0  0
    2.2483   -0.7250   -0.1665 C   0  0  0  0  0  0  0  0  0  0  0  0
    1.3852    1.3627    0.9120 C   0  0  0  0  0  0  0  0  0  0  0  0
    1.8435   -2.0297    0.1654 C   0  0  0  0  0  0  0  0  0  0  0  0
   -2.2373   -1.1248    0.2897 C   0  0  0  0  0  0  0  0  0  0  0  0
    3.6225   -0.4730   -0.3620 C   0  0  0  0  0  0  0  0  0  0  0  0
    0.9332    2.7563    0.5891 C   0  0  0  0  0  0  0  0  0  0  0  0
    2.8137   -3.0414    0.2892 C   0  0  0  0  0  0  0  0  0  0  0  0
    4.5729   -1.4841   -0.2329 C   0  0  0  0  0  0  0  0  0  0  0  0
   -3.0223   -0.0989   -0.2365 C   0  0  0  0  0  0  0  0  0  0  0  0
   -2.8316   -2.3195    0.6958 C   0  0  0  0  0  0  0  0  0  0  0  0
    4.1673   -2.7703    0.0938 C   0  0  0  0  0  0  0  0  0  0  0  0
    1.8536    3.7007    0.1347 C   0  0  0  0  0  0  0  0  0  0  0  0
   -0.4080    3.1074    0.7429 C   0  0  0  0  0  0  0  0  0  0  0  0
   -4.4016   -0.2678   -0.3570 C   0  0  0  0  0  0  0  0  0  0  0  0
   -4.2111   -2.4883    0.5757 C   0  0  0  0  0  0  0  0  0  0  0  0
   -4.9961   -1.4625    0.0493 C   0  0  0  0  0  0  0  0  0  0  0  0
    1.4329    4.9962   -0.1659 C   0  0  0  0  0  0  0  0  0  0  0  0
   -0.8288    4.4028    0.4421 C   0  0  0  0  0  0  0  0  0  0  0  0
    0.0917    5.3472   -0.0123 C   0  0  0  0  0  0  0  0  0  0  0  0
    1.6366    1.0010   -1.2066 H   0  0  0  0  0  0  0  0  0  0  0  0
   -0.7314    0.9649   -0.6676 H   0  0  0  0  0  0  0  0  0  0  0  0
   -0.5957   -0.5298    1.4257 H   0  0  0  0  0  0  0  0  0  0  0  0
    2.4156    1.4271    1.2871 H   0  0  0  0  0  0  0  0  0  0  0  0
    0.8220    0.9745    1.7677 H   0  0  0  0  0  0  0  0  0  0  0  0
    0.0840    0.1718   -2.5545 H   0  0  0  0  0  0  0  0  0  0  0  0
    2.5120   -4.0575    0.5405 H   0  0  0  0  0  0  0  0  0  0  0  0
    5.6288   -1.2771   -0.3878 H   0  0  0  0  0  0  0  0  0  0  0  0
   -2.6216    0.8604   -0.5355 H   0  0  0  0  0  0  0  0  0  0  0  0
   -2.2858   -3.1375    1.1527 H   0  0  0  0  0  0  0  0  0  0  0  0
    2.9011    3.4404    0.0091 H   0  0  0  0  0  0  0  0  0  0  0  0
   -1.1344    2.3909    1.1163 H   0  0  0  0  0  0  0  0  0  0  0  0
   -4.6633   -3.4203    0.9045 H   0  0  0  0  0  0  0  0  0  0  0  0
    5.0416    0.7536   -0.7903 H   0  0  0  0  0  0  0  0  0  0  0  0
    2.1495    5.7316   -0.5198 H   0  0  0  0  0  0  0  0  0  0  0  0
   -1.8722    4.6774    0.5662 H   0  0  0  0  0  0  0  0  0  0  0  0
   -0.2357    6.3562   -0.2455 H   0  0  0  0  0  0  0  0  0  0  0  0
    4.6296   -4.5920    0.4498 H   0  0  0  0  0  0  0  0  0  0  0  0
   -4.5795    1.4889   -1.1036 H   0  0  0  0  0  0  0  0  0  0  0  0
   -6.5740   -2.5246    0.2652 H   0  0  0  0  0  0  0  0  0  0  0  0
  1  9  1  0  0  0  0
  1 12  1  0  0  0  0
  2  8  1  0  0  0  0
  2 34  1  0  0  0  0
  3 14  1  0  0  0  0
  3 42  1  0  0  0  0
  4 20  1  0  0  0  0
  4 46  1  0  0  0  0
  5 23  1  0  0  0  0
  5 47  1  0  0  0  0
  6 25  1  0  0  0  0
  6 48  1  0  0  0  0
  7  8  1  0  0  0  0
  7 10  1  0  0  0  0
  7 11  1  0  0  0  0
  7 29  1  0  0  0  0
  8  9  1  0  0  0  0
  8 30  1  0  0  0  0
  9 13  1  0  0  0  0
  9 31  1  0  0  0  0
 10 12  1  0  0  0  0
 10 14  2  0  0  0  0
 11 15  1  0  0  0  0
 11 32  1  0  0  0  0
 11 33  1  0  0  0  0
 12 16  2  0  0  0  0
 13 18  2  0  0  0  0
 13 19  1  0  0  0  0
 14 17  1  0  0  0  0
 15 21  2  0  0  0  0
 15 22  1  0  0  0  0
 16 20  1  0  0  0  0
 16 35  1  0  0  0  0
 17 20  2  0  0  0  0
 17 36  1  0  0  0  0
 18 23  1  0  0  0  0
 18 37  1  0  0  0  0
 19 24  2  0  0  0  0
 19 38  1  0  0  0  0
 21 26  1  0  0  0  0
 21 39  1  0  0  0  0
 22 27  2  0  0  0  0
 22 40  1  0  0  0  0
 23 25  2  0  0  0  0
 24 25  1  0  0  0  0
 24 41  1  0  0  0  0
 26 28  2  0  0  0  0
 26 43  1  0  0  0  0
 27 28  1  0  0  0  0
 27 44  1  0  0  0  0
 28 45  1  0  0  0  0
M  END
> <PUBCHEM_COMPOUND_CID>
101607232

> <PUBCHEM_CONFORMER_RMSD>
0.8

> <PUBCHEM_CONFORMER_DIVERSEORDER>
3
9
6
17
15
14
21
13
18
10
4
20
5
19
23
16
8
2
11
12
22
1
7

> <PUBCHEM_MMFF94_PARTIAL_CHARGES>
43
1 -0.33
10 -0.14
11 0.14
12 0.1
13 -0.14
14 0.08
15 -0.14
16 -0.15
17 -0.15
18 -0.15
19 -0.15
2 -0.68
20 0.08
21 -0.15
22 -0.15
23 0.08
24 -0.15
25 0.08
26 -0.15
27 -0.15
28 -0.15
3 -0.53
34 0.4
35 0.15
36 0.15
37 0.15
38 0.15
39 0.15
4 -0.53
40 0.15
41 0.15
42 0.45
43 0.15
44 0.15
45 0.15
46 0.45
47 0.45
48 0.45
5 -0.53
6 -0.53
7 0.14
8 0.28
9 0.37

> <PUBCHEM_EFFECTIVE_ROTOR_COUNT>
3.8

> <PUBCHEM_PHARMACOPHORE_FEATURES>
10
1 2 acceptor
1 2 donor
1 3 donor
1 4 donor
1 5 donor
1 6 donor
6 1 7 8 9 10 12 rings
6 10 12 14 16 17 20 rings
6 13 18 19 23 24 25 rings
6 15 21 22 26 27 28 rings

> <PUBCHEM_HEAVY_ATOM_COUNT>
28

> <PUBCHEM_ATOM_DEF_STEREO_COUNT>
2

> <PUBCHEM_ATOM_UDEF_STEREO_COUNT>
1

> <PUBCHEM_BOND_DEF_STEREO_COUNT>
0

> <PUBCHEM_BOND_UDEF_STEREO_COUNT>
0

> <PUBCHEM_ISOTOPIC_ATOM_COUNT>
0

> <PUBCHEM_COMPONENT_COUNT>
1

> <PUBCHEM_CACTVS_TAUTO_COUNT>
480

> <PUBCHEM_CONFORMER_ID>
060E674000000003

> <PUBCHEM_MMFF94_ENERGY>
91.3902

> <PUBCHEM_FEATURE_SELFOVERLAP>
50.768

> <PUBCHEM_SHAPE_FINGERPRINT>
10050765 1 17978511932971568346
10074138 170 17399485967825066890
10411042 1 18411137991725447298
1100329 8 17979640362149054224
12293681 4 18124025733384511813
12403259 226 18335136531715685023
12516196 113 18411417297828173354
12788726 201 18046623404380920722
13004483 165 18340198584075574602
13052359 8 17762899862209403056
13134695 92 18411697707589204295
13140716 1 18265893558411286874
13540713 5 17827088303895672878
13583140 156 18265902552157571007
138480 1 18411138081872008473
13911987 19 17973467648147194628
13955234 65 18122632913970940955
14028597 1 17677882445285583842
14114211 80 17038690508869563553
14178342 30 17903625295156319834
14790565 3 17401208270753211752
14866123 147 17545601149966126962
15042514 8 18052259496916480712
15081414 286 18339935899538397666
15131766 46 16054021539248460578
15230672 131 17471015152591520916
15400415 2 17474108082894760225
15927050 60 17692535928553489798
16087824 20 18050851010228001497
16988056 13 18336253639561209733
16992752 21 18338807702737175150
17980427 23 17561090172461743523
17980427 26 17981320402340246461
18681886 176 18412820309025233538
18785283 64 18048594008538176424
21049683 271 18189065337564410820
21133410 127 17680417043148226197
21307412 95 16474322718056339662
21478907 32 18338799992310146096
21703447 108 18340477860720100650
23558518 356 17831027823243903122
23559900 14 18337665425745076931
23929065 36 17978488864163541474
255183 313 17695362373390248833
283562 15 18117842101576038410
3004659 81 18113620045676665906
3103668 31 18047473314559542861
3298306 158 17764316432328131149
4015057 19 18336819884018336047
4409770 3 17904200326298836841
58902169 19 18059840772294277415
59755656 520 17255965568374357374
6086070 43 18337091395018397847
6442390 28 17328870309818893693
6443956 14 18409168831014052710
653340 110 18050838928188845658
7164475 11 18266746766776256030
77188 2 18410856547024133896
7808743 9 16607725986617080761
79837 15 17475795351631215064
9777508 108 17763173649368584672
9981440 41 17401483144486001897

> <PUBCHEM_SHAPE_MULTIPOLES>
550.73
9.63
6.82
0.9
9.87
10.66
0.15
-10.56
0.98
-5.26
-1.08
0.13
0.04
0.28

> <PUBCHEM_SHAPE_SELFOVERLAP>
1198.932

> <PUBCHEM_SHAPE_VOLUME>
299.6

> <PUBCHEM_COORDINATE_TYPE>
2
5
10

$$$$
