139599911
  -OEChem-09022013143D

 28 29  0     1  0  0  0  0  0999 V2000
   -1.3668   -0.5393    1.0198 O   0  0  0  0  0  0  0  0  0  0  0  0
   -1.2046    2.3549   -1.0913 O   0  0  0  0  0  0  0  0  0  0  0  0
   -3.3793    1.5839    0.3628 O   0  0  0  0  0  0  0  0  0  0  0  0
   -2.3669   -3.0524    0.2771 O   0  0  0  0  0  0  0  0  0  0  0  0
    3.0513    0.6889    0.1608 O   0  0  0  0  0  0  0  0  0  0  0  0
    1.5724    2.2899    0.7079 O   0  0  0  0  0  0  0  0  0  0  0  0
    4.5110   -0.9448   -0.3939 O   0  0  0  0  0  0  0  0  0  0  0  0
    0.7206    0.1811    0.2528 N   0  0  0  0  0  0  0  0  0  0  0  0
   -1.3504    0.9805   -0.7982 C   0  0  2  0  0  0  0  0  0  0  0  0
   -2.7853    0.6071   -0.4919 C   0  0  1  0  0  0  0  0  0  0  0  0
   -0.6396    0.5773    0.4821 C   0  0  1  0  0  0  0  0  0  0  0  0
   -2.6169   -0.6769    0.3089 C   0  0  1  0  0  0  0  0  0  0  0  0
   -2.5327   -1.9231   -0.5621 C   0  0  0  0  0  0  0  0  0  0  0  0
    1.0144   -1.1186   -0.1050 C   0  0  0  0  0  0  0  0  0  0  0  0
    1.7631    1.1151    0.3913 C   0  0  0  0  0  0  0  0  0  0  0  0
    2.2549   -1.5376   -0.3289 C   0  0  0  0  0  0  0  0  0  0  0  0
    3.3548   -0.5860   -0.1921 C   0  0  0  0  0  0  0  0  0  0  0  0
   -0.9939    0.4030   -1.6597 H   0  0  0  0  0  0  0  0  0  0  0  0
   -3.4113    0.5134   -1.3838 H   0  0  0  0  0  0  0  0  0  0  0  0
   -0.6669    1.3860    1.2225 H   0  0  0  0  0  0  0  0  0  0  0  0
   -3.3971   -0.8044    1.0678 H   0  0  0  0  0  0  0  0  0  0  0  0
   -1.6984   -1.8899   -1.2671 H   0  0  0  0  0  0  0  0  0  0  0  0
   -3.4600   -2.0509   -1.1301 H   0  0  0  0  0  0  0  0  0  0  0  0
   -0.2540    2.5324   -1.1928 H   0  0  0  0  0  0  0  0  0  0  0  0
   -4.2826    1.2841    0.5628 H   0  0  0  0  0  0  0  0  0  0  0  0
    0.2020   -1.8226   -0.2040 H   0  0  0  0  0  0  0  0  0  0  0  0
   -2.3278   -3.8347   -0.2992 H   0  0  0  0  0  0  0  0  0  0  0  0
    2.4734   -2.5608   -0.6084 H   0  0  0  0  0  0  0  0  0  0  0  0
  1 11  1  0  0  0  0
  1 12  1  0  0  0  0
  2  9  1  0  0  0  0
  2 24  1  0  0  0  0
  3 10  1  0  0  0  0
  3 25  1  0  0  0  0
  4 13  1  0  0  0  0
  4 27  1  0  0  0  0
  5 15  1  0  0  0  0
  5 17  1  0  0  0  0
  6 15  2  0  0  0  0
  7 17  2  0  0  0  0
  8 11  1  0  0  0  0
  8 14  1  0  0  0  0
  8 15  1  0  0  0  0
  9 10  1  0  0  0  0
  9 11  1  0  0  0  0
  9 18  1  0  0  0  0
 10 12  1  0  0  0  0
 10 19  1  0  0  0  0
 11 20  1  0  0  0  0
 12 13  1  0  0  0  0
 12 21  1  0  0  0  0
 13 22  1  0  0  0  0
 13 23  1  0  0  0  0
 14 16  2  0  0  0  0
 14 26  1  0  0  0  0
 16 17  1  0  0  0  0
 16 28  1  0  0  0  0
M  END
> <PUBCHEM_COMPOUND_CID>
139599911

> <PUBCHEM_CONFORMER_RMSD>
0.6

> <PUBCHEM_CONFORMER_DIVERSEORDER>
1
6
19
12
13
8
5
20
3
9
17
16
18
4
10
21
7
11
15
2
14

> <PUBCHEM_MMFF94_PARTIAL_CHARGES>
22
1 -0.56
10 0.28
11 0.58
12 0.28
13 0.28
14 -0.04
15 0.78
16 -0.14
17 0.71
2 -0.68
24 0.4
25 0.4
26 0.15
27 0.4
28 0.15
3 -0.68
4 -0.68
5 -0.3
6 -0.57
7 -0.57
8 -0.47
9 0.28

> <PUBCHEM_EFFECTIVE_ROTOR_COUNT>
3

> <PUBCHEM_PHARMACOPHORE_FEATURES>
11
1 1 acceptor
1 2 acceptor
1 2 donor
1 3 acceptor
1 3 donor
1 4 acceptor
1 4 donor
1 6 acceptor
1 7 acceptor
5 1 9 10 11 12 rings
6 5 8 14 15 16 17 rings

> <PUBCHEM_HEAVY_ATOM_COUNT>
17

> <PUBCHEM_ATOM_DEF_STEREO_COUNT>
3

> <PUBCHEM_ATOM_UDEF_STEREO_COUNT>
1

> <PUBCHEM_BOND_DEF_STEREO_COUNT>
0

> <PUBCHEM_BOND_UDEF_STEREO_COUNT>
0

> <PUBCHEM_ISOTOPIC_ATOM_COUNT>
0

> <PUBCHEM_COMPONENT_COUNT>
1

> <PUBCHEM_CACTVS_TAUTO_COUNT>
-1

> <PUBCHEM_CONFORMER_ID>
0852202700000001

> <PUBCHEM_MMFF94_ENERGY>
49.3575

> <PUBCHEM_FEATURE_SELFOVERLAP>
55.841

> <PUBCHEM_SHAPE_FINGERPRINT>
10608611 8 18411695504292255504
11132069 177 18412822491142107858
12138202 97 18042955498046343559
12500047 106 18337105670603440351
12932764 1 17967523554304401576
12969540 114 17969481742386893573
13024252 1 16008757879310420649
14115302 16 18336839601648306708
14965852 173 18412544322920813379
15219456 202 18411979191192811488
15375462 6 18194680599440175892
15775835 57 18261396581164518315
16945 1 18264191552702113825
200 152 17703501129914151295
20201158 50 18340205189618945342
20871999 31 18260255357431549087
21501502 16 18409730702756609356
221490 88 18268153226605155722
22721475 48 18412548712403783206
22802520 49 18409727391458078585
2334 1 18194117645012380635
23388829 49 17762053642093464429
23402539 116 17385723582606428382
23559900 14 18270671077703592832
25 1 18194116309515045397
2748010 2 18266169720033144479
2871803 45 18265041604213996679
5493415 88 18342737438154776810
6333449 129 18335417941972279175
69090 78 18338513045914235415
74978 22 18341892987106713937
81228 2 18115584988945141657
8809292 202 18409731750834339082
93112 12 18412260635999009069
9709674 26 18343866623480012151

> <PUBCHEM_SHAPE_MULTIPOLES>
303.79
6.1
2.49
0.85
3.57
0.48
0.04
1.39
0.45
-1.33
0.09
-0.24
-0.16
0.57

> <PUBCHEM_SHAPE_SELFOVERLAP>
643.252

> <PUBCHEM_SHAPE_VOLUME>
169.2

> <PUBCHEM_COORDINATE_TYPE>
2
5
10

$$$$
