12311278
  -OEChem-09022014313D

 58 61  0     1  0  0  0  0  0999 V2000
    1.8547   -2.5027    0.4823 O   0  0  0  0  0  0  0  0  0  0  0  0
   -0.2292   -1.2723    1.7489 O   0  0  0  0  0  0  0  0  0  0  0  0
    2.4120    2.3429    0.6416 O   0  0  0  0  0  0  0  0  0  0  0  0
    4.4123    1.5557   -1.4839 O   0  0  0  0  0  0  0  0  0  0  0  0
   -6.4237    0.6713   -0.6653 O   0  0  0  0  0  0  0  0  0  0  0  0
    1.3694   -1.2620   -0.0602 C   0  0  2  0  0  0  0  0  0  0  0  0
    2.2966   -0.1006    0.4262 C   0  0  2  0  0  0  0  0  0  0  0  0
   -0.1367   -1.1063    0.3259 C   0  0  2  0  0  0  0  0  0  0  0  0
   -0.6984    0.2972   -0.0347 C   0  0  1  0  0  0  0  0  0  0  0  0
   -2.2294    0.4983    0.3409 C   0  0  2  0  0  0  0  0  0  0  0  0
    1.6626    1.2747    0.0594 C   0  0  1  0  0  0  0  0  0  0  0  0
    3.5950   -0.3975   -0.3842 C   0  0  1  0  0  0  0  0  0  0  0  0
    0.2112    1.4057    0.5303 C   0  0  0  0  0  0  0  0  0  0  0  0
    1.6507   -1.3025   -1.5778 C   0  0  0  0  0  0  0  0  0  0  0  0
    3.1290   -0.9386   -1.7386 C   0  0  0  0  0  0  0  0  0  0  0  0
   -1.0088   -2.2107   -0.3091 C   0  0  0  0  0  0  0  0  0  0  0  0
   -3.0437   -0.7651    0.0469 C   0  0  0  0  0  0  0  0  0  0  0  0
    2.6363   -0.1659    1.9318 C   0  0  0  0  0  0  0  0  0  0  0  0
   -2.7895    1.6556   -0.5480 C   0  0  0  0  0  0  0  0  0  0  0  0
   -2.4809   -1.9483   -0.2476 C   0  0  0  0  0  0  0  0  0  0  0  0
   -2.4278    0.8795    1.8294 C   0  0  0  0  0  0  0  0  0  0  0  0
   -4.5492   -0.6311    0.0634 C   0  0  0  0  0  0  0  0  0  0  0  0
    4.5225    0.7684   -0.5453 C   0  0  0  0  0  0  0  0  0  0  0  0
   -4.3097    1.8158   -0.4956 C   0  0  0  0  0  0  0  0  0  0  0  0
   -5.0193    0.5084   -0.8359 C   0  0  2  0  0  0  0  0  0  0  0  0
    5.5938    0.9301    0.4990 C   0  0  0  0  0  0  0  0  0  0  0  0
   -0.6415    0.3784   -1.1296 H   0  0  0  0  0  0  0  0  0  0  0  0
    1.6876    1.4285   -1.0258 H   0  0  0  0  0  0  0  0  0  0  0  0
    4.1689   -1.2006    0.0979 H   0  0  0  0  0  0  0  0  0  0  0  0
   -0.1598    2.3923    0.2294 H   0  0  0  0  0  0  0  0  0  0  0  0
    0.1941    1.4130    1.6261 H   0  0  0  0  0  0  0  0  0  0  0  0
    1.0446   -0.5795   -2.1320 H   0  0  0  0  0  0  0  0  0  0  0  0
    1.4654   -2.2926   -2.0089 H   0  0  0  0  0  0  0  0  0  0  0  0
    3.7111   -1.8310   -1.9998 H   0  0  0  0  0  0  0  0  0  0  0  0
    3.2496   -0.2397   -2.5727 H   0  0  0  0  0  0  0  0  0  0  0  0
   -0.8180   -3.1671    0.1937 H   0  0  0  0  0  0  0  0  0  0  0  0
   -0.7626   -2.3462   -1.3675 H   0  0  0  0  0  0  0  0  0  0  0  0
    3.3428    0.6133    2.2285 H   0  0  0  0  0  0  0  0  0  0  0  0
    1.7497   -0.0350    2.5575 H   0  0  0  0  0  0  0  0  0  0  0  0
    3.0881   -1.1254    2.2055 H   0  0  0  0  0  0  0  0  0  0  0  0
   -2.5102    1.4826   -1.5964 H   0  0  0  0  0  0  0  0  0  0  0  0
   -2.3343    2.6113   -0.2629 H   0  0  0  0  0  0  0  0  0  0  0  0
   -3.1176   -2.8003   -0.4749 H   0  0  0  0  0  0  0  0  0  0  0  0
    2.6859   -2.7524    0.0478 H   0  0  0  0  0  0  0  0  0  0  0  0
   -1.9564    1.8388    2.0669 H   0  0  0  0  0  0  0  0  0  0  0  0
   -3.4845    0.9912    2.0941 H   0  0  0  0  0  0  0  0  0  0  0  0
   -2.0220    0.1258    2.5090 H   0  0  0  0  0  0  0  0  0  0  0  0
    0.1695   -2.1296    1.9762 H   0  0  0  0  0  0  0  0  0  0  0  0
   -5.0400   -1.5599   -0.2559 H   0  0  0  0  0  0  0  0  0  0  0  0
   -4.8980   -0.4706    1.0912 H   0  0  0  0  0  0  0  0  0  0  0  0
   -4.6289    2.1742    0.4905 H   0  0  0  0  0  0  0  0  0  0  0  0
   -4.6247    2.5954   -1.2003 H   0  0  0  0  0  0  0  0  0  0  0  0
   -4.8376    0.2587   -1.8886 H   0  0  0  0  0  0  0  0  0  0  0  0
    2.0102    3.1787    0.3492 H   0  0  0  0  0  0  0  0  0  0  0  0
    5.2024    1.4784    1.3570 H   0  0  0  0  0  0  0  0  0  0  0  0
    5.9765   -0.0434    0.8147 H   0  0  0  0  0  0  0  0  0  0  0  0
    6.4280    1.4932    0.0698 H   0  0  0  0  0  0  0  0  0  0  0  0
   -6.8487   -0.1688   -0.9088 H   0  0  0  0  0  0  0  0  0  0  0  0
  1  6  1  0  0  0  0
  1 44  1  0  0  0  0
  2  8  1  0  0  0  0
  2 48  1  0  0  0  0
  3 11  1  0  0  0  0
  3 54  1  0  0  0  0
  4 23  2  0  0  0  0
  5 25  1  0  0  0  0
  5 58  1  0  0  0  0
  6  7  1  0  0  0  0
  6  8  1  0  0  0  0
  6 14  1  0  0  0  0
  7 11  1  0  0  0  0
  7 12  1  0  0  0  0
  7 18  1  0  0  0  0
  8  9  1  0  0  0  0
  8 16  1  0  0  0  0
  9 10  1  0  0  0  0
  9 13  1  0  0  0  0
  9 27  1  0  0  0  0
 10 17  1  0  0  0  0
 10 19  1  0  0  0  0
 10 21  1  0  0  0  0
 11 13  1  0  0  0  0
 11 28  1  0  0  0  0
 12 15  1  0  0  0  0
 12 23  1  0  0  0  0
 12 29  1  0  0  0  0
 13 30  1  0  0  0  0
 13 31  1  0  0  0  0
 14 15  1  0  0  0  0
 14 32  1  0  0  0  0
 14 33  1  0  0  0  0
 15 34  1  0  0  0  0
 15 35  1  0  0  0  0
 16 20  1  0  0  0  0
 16 36  1  0  0  0  0
 16 37  1  0  0  0  0
 17 20  2  0  0  0  0
 17 22  1  0  0  0  0
 18 38  1  0  0  0  0
 18 39  1  0  0  0  0
 18 40  1  0  0  0  0
 19 24  1  0  0  0  0
 19 41  1  0  0  0  0
 19 42  1  0  0  0  0
 20 43  1  0  0  0  0
 21 45  1  0  0  0  0
 21 46  1  0  0  0  0
 21 47  1  0  0  0  0
 22 25  1  0  0  0  0
 22 49  1  0  0  0  0
 22 50  1  0  0  0  0
 23 26  1  0  0  0  0
 24 25  1  0  0  0  0
 24 51  1  0  0  0  0
 24 52  1  0  0  0  0
 25 53  1  0  0  0  0
 26 55  1  0  0  0  0
 26 56  1  0  0  0  0
 26 57  1  0  0  0  0
M  END
> <PUBCHEM_COMPOUND_CID>
12311278

> <PUBCHEM_CONFORMER_RMSD>
0.6

> <PUBCHEM_CONFORMER_DIVERSEORDER>
1
2

> <PUBCHEM_MMFF94_PARTIAL_CHARGES>
22
1 -0.68
10 0.14
11 0.28
12 0.06
16 0.14
17 -0.28
2 -0.68
20 -0.29
22 0.14
23 0.45
25 0.28
26 0.06
3 -0.68
4 -0.57
43 0.15
44 0.4
48 0.4
5 -0.68
54 0.4
58 0.4
6 0.28
8 0.28

> <PUBCHEM_EFFECTIVE_ROTOR_COUNT>
3

> <PUBCHEM_PHARMACOPHORE_FEATURES>
13
1 1 acceptor
1 1 donor
1 2 acceptor
1 2 donor
1 3 acceptor
1 3 donor
1 4 acceptor
1 5 acceptor
1 5 donor
5 6 7 12 14 15 rings
6 10 17 19 22 24 25 rings
6 6 7 8 9 11 13 rings
6 8 9 10 16 17 20 rings

> <PUBCHEM_HEAVY_ATOM_COUNT>
26

> <PUBCHEM_ATOM_DEF_STEREO_COUNT>
8

> <PUBCHEM_ATOM_UDEF_STEREO_COUNT>
0

> <PUBCHEM_BOND_DEF_STEREO_COUNT>
0

> <PUBCHEM_BOND_UDEF_STEREO_COUNT>
0

> <PUBCHEM_ISOTOPIC_ATOM_COUNT>
0

> <PUBCHEM_COMPONENT_COUNT>
1

> <PUBCHEM_CACTVS_TAUTO_COUNT>
3

> <PUBCHEM_CONFORMER_ID>
00BBDAEE00000001

> <PUBCHEM_MMFF94_ENERGY>
95.337

> <PUBCHEM_FEATURE_SELFOVERLAP>
66.173

> <PUBCHEM_SHAPE_FINGERPRINT>
10366900 7 17203890768614627715
10498660 4 18410016515634542869
10759866 29 18260264127137634106
10863032 1 18131080320379333870
10948715 1 18186806919759879878
11578080 2 17170093868567667190
11961588 58 18261116308994779348
12011746 2 18272936024538680828
12236239 1 17676202494254346506
12596602 18 15213308555359477677
12670546 177 18131063849216515023
12788726 201 17916867907263006921
13140716 1 18197219371635671784
13224815 77 18186810162317757153
13583140 156 17458351852822288081
15196674 1 18410856533917627551
15788980 27 17821451257459588944
1601671 61 18410854360827803500
16945 1 18412545375198441626
17349148 13 18060128830321812785
18608769 82 18336269046114964531
19862831 5 18272933791424608103
200 152 16559034887158030379
20691752 17 18116732719859688792
221357 26 18201719527179786197
22182313 1 18199770152708082278
22393880 68 18342172318820877935
23227448 37 18338800134096743247
23402539 116 18410568526749204086
23557571 272 18200315558115770799
23559900 14 17988356091305373424
296302 2 18410295813068089607
3004659 81 18336547119266541086
335352 9 18411417311187160190
3472631 163 18260269676219439796
34934 24 18412257341764699151
350125 39 18412268371820899129
4028521 119 18411421708964704127
4280585 95 17410510783728443110
4340502 62 16805328777577516435
474 4 17676491665469488829
495365 180 17346022472405978024
5104073 3 18114748106062088433
59755656 215 18413106160472755285
59755656 520 17240761808868426810
9709674 26 18271524294890858519
9981440 41 18259987097510487474

> <PUBCHEM_SHAPE_MULTIPOLES>
505.72
10.54
2.2
1.41
4.25
0.33
0.23
-4.12
-2.84
-0.06
-0.09
-0.72
0.04
0.36

> <PUBCHEM_SHAPE_SELFOVERLAP>
1087.834

> <PUBCHEM_SHAPE_VOLUME>
276.7

> <PUBCHEM_COORDINATE_TYPE>
2
5
10

$$$$
