102165355
  -OEChem-09022014132D

146152  0     1  0  0  0  0  0999 V2000
   16.4006    1.2837    0.0000 O   0  0  0  0  0  0  0  0  0  0  0  0
   18.2030    0.4348    0.0000 O   0  0  0  0  0  0  0  0  0  0  0  0
   12.9292   -2.5691    0.0000 O   0  0  0  0  0  0  0  0  0  0  0  0
   15.2809    3.1456    0.0000 O   0  0  0  0  0  0  0  0  0  0  0  0
   19.3025    2.6233    0.0000 O   0  0  0  0  0  0  0  0  0  0  0  0
   18.1992   -0.5652    0.0000 O   0  0  0  0  0  0  0  0  0  0  0  0
   11.1972   -2.5691    0.0000 O   0  0  0  0  0  0  0  0  0  0  0  0
    9.4651   -0.5691    0.0000 O   0  0  0  0  0  0  0  0  0  0  0  0
   19.0748    1.9314    0.0000 O   0  0  0  0  0  0  0  0  0  0  0  0
   11.1972    0.4309    0.0000 O   0  0  0  0  0  0  0  0  0  0  0  0
   13.7485    2.3384    0.0000 O   0  0  0  0  0  0  0  0  0  0  0  0
    7.7331   -0.5691    0.0000 O   0  0  0  0  0  0  0  0  0  0  0  0
    6.0010   -2.5691    0.0000 O   0  0  0  0  0  0  0  0  0  0  0  0
    7.7331   -3.5691    0.0000 O   0  0  0  0  0  0  0  0  0  0  0  0
    4.2690   -2.5691    0.0000 O   0  0  0  0  0  0  0  0  0  0  0  0
    4.2690    0.4309    0.0000 O   0  0  0  0  0  0  0  0  0  0  0  0
    2.5369   -0.5691    0.0000 O   0  0  0  0  0  0  0  0  0  0  0  0
   17.6846    1.8764    0.0000 C   0  0  1  0  0  0  0  0  0  0  0  0
   15.5992   -1.0552    0.0000 C   0  0  1  0  0  0  0  0  0  0  0  0
   16.7462    2.2221    0.0000 C   0  0  2  0  0  0  0  0  0  0  0  0
   16.4671   -0.5586    0.0000 C   0  0  1  0  0  0  0  0  0  0  0  0
   17.3389    0.9381    0.0000 C   0  0  1  0  0  0  0  0  0  0  0  0
   16.4710    0.4414    0.0000 C   0  0  0  0  0  0  0  0  0  0  0  0
   14.7073   -0.5171    0.0000 C   0  0  0  0  0  0  0  0  0  0  0  0
   16.7850    3.2213    0.0000 C   0  0  0  0  0  0  0  0  0  0  0  0
   15.5953   -2.0552    0.0000 C   0  0  0  0  0  0  0  0  0  0  0  0
   18.3033    2.6621    0.0000 C   0  0  0  0  0  0  0  0  0  0  0  0
   17.7473    3.4933    0.0000 C   0  0  0  0  0  0  0  0  0  0  0  0
   15.7470    2.2608    0.0000 C   0  0  3  0  0  0  0  0  0  0  0  0
   13.7993   -1.0275    0.0000 C   0  0  0  0  0  0  0  0  0  0  0  0
   14.6993   -2.5864    0.0000 C   0  0  0  0  0  0  0  0  0  0  0  0
   18.4702    1.2578    0.0000 C   0  0  0  0  0  0  0  0  0  0  0  0
   13.7953   -2.0691    0.0000 C   0  0  1  0  0  0  0  0  0  0  0  0
   17.3312   -1.0619    0.0000 C   0  0  0  0  0  0  0  0  0  0  0  0
   15.6031   -0.0552    0.0000 C   0  0  0  0  0  0  0  0  0  0  0  0
   16.4594   -2.5586    0.0000 C   0  0  0  0  0  0  0  0  0  0  0  0
   17.3274   -2.0619    0.0000 C   0  0  0  0  0  0  0  0  0  0  0  0
   15.2138    1.4149    0.0000 C   0  0  0  0  0  0  0  0  0  0  0  0
   12.0632   -2.0691    0.0000 C   0  0  2  0  0  0  0  0  0  0  0  0
   19.0710    0.9314    0.0000 C   0  0  0  0  0  0  0  0  0  0  0  0
   12.0632   -1.0691    0.0000 C   0  0  0  0  0  0  0  0  0  0  0  0
   11.1972   -0.5691    0.0000 C   0  0  1  0  0  0  0  0  0  0  0  0
   10.3312   -1.0691    0.0000 C   0  0  1  0  0  0  0  0  0  0  0  0
   10.3312   -2.0691    0.0000 C   0  0  1  0  0  0  0  0  0  0  0  0
   14.2817    3.1843    0.0000 C   0  0  0  0  0  0  0  0  0  0  0  0
   19.9351    0.4281    0.0000 C   0  0  0  0  0  0  0  0  0  0  0  0
    9.4651   -2.5691    0.0000 C   0  0  0  0  0  0  0  0  0  0  0  0
   13.8156    4.0691    0.0000 C   0  0  0  0  0  0  0  0  0  0  0  0
    8.5991   -1.0691    0.0000 C   0  0  2  0  0  0  0  0  0  0  0  0
    8.5991   -2.0691    0.0000 C   0  0  0  0  0  0  0  0  0  0  0  0
    7.7331   -2.5691    0.0000 C   0  0  1  0  0  0  0  0  0  0  0  0
    6.8671   -2.0691    0.0000 C   0  0  1  0  0  0  0  0  0  0  0  0
   20.8030    0.9247    0.0000 C   0  0  0  0  0  0  0  0  0  0  0  0
    6.8671   -1.0691    0.0000 C   0  0  2  0  0  0  0  0  0  0  0  0
   12.0632    0.9309    0.0000 C   0  0  0  0  0  0  0  0  0  0  0  0
    5.1350   -2.0691    0.0000 C   0  0  2  0  0  0  0  0  0  0  0  0
    6.0010   -0.5691    0.0000 C   0  0  0  0  0  0  0  0  0  0  0  0
   21.6671    0.4214    0.0000 C   0  0  0  0  0  0  0  0  0  0  0  0
    5.1350   -1.0691    0.0000 C   0  0  0  0  0  0  0  0  0  0  0  0
    4.2690   -0.5691    0.0000 C   0  0  1  0  0  0  0  0  0  0  0  0
    3.4030   -1.0691    0.0000 C   0  0  1  0  0  0  0  0  0  0  0  0
    3.4030   -2.0691    0.0000 C   0  0  1  0  0  0  0  0  0  0  0  0
   21.6633   -0.5786    0.0000 C   0  0  0  0  0  0  0  0  0  0  0  0
   22.5351    0.9181    0.0000 C   0  0  0  0  0  0  0  0  0  0  0  0
    8.5991   -4.0691    0.0000 C   0  0  0  0  0  0  0  0  0  0  0  0
    2.5369   -2.5691    0.0000 C   0  0  0  0  0  0  0  0  0  0  0  0
   22.5273   -1.0819    0.0000 C   0  0  0  0  0  0  0  0  0  0  0  0
   23.3991    0.4147    0.0000 C   0  0  0  0  0  0  0  0  0  0  0  0
   23.3953   -0.5853    0.0000 C   0  0  0  0  0  0  0  0  0  0  0  0
    3.4030    0.9309    0.0000 C   0  0  0  0  0  0  0  0  0  0  0  0
   17.0053   -0.2506    0.0000 H   0  0  0  0  0  0  0  0  0  0  0  0
   17.3366    0.3181    0.0000 H   0  0  0  0  0  0  0  0  0  0  0  0
   16.2612    1.0248    0.0000 H   0  0  0  0  0  0  0  0  0  0  0  0
   15.8600    0.3361    0.0000 H   0  0  0  0  0  0  0  0  0  0  0  0
   15.1137   -0.0489    0.0000 H   0  0  0  0  0  0  0  0  0  0  0  0
   14.3155   -0.0366    0.0000 H   0  0  0  0  0  0  0  0  0  0  0  0
   16.6797    3.8323    0.0000 H   0  0  0  0  0  0  0  0  0  0  0  0
   16.1663    3.1805    0.0000 H   0  0  0  0  0  0  0  0  0  0  0  0
   18.2958    3.7822    0.0000 H   0  0  0  0  0  0  0  0  0  0  0  0
   17.5172    4.0690    0.0000 H   0  0  0  0  0  0  0  0  0  0  0  0
   16.0775    2.7854    0.0000 H   0  0  0  0  0  0  0  0  0  0  0  0
   13.5925   -0.4430    0.0000 H   0  0  0  0  0  0  0  0  0  0  0  0
   13.1880   -1.1312    0.0000 H   0  0  0  0  0  0  0  0  0  0  0  0
   14.3039   -3.0639    0.0000 H   0  0  0  0  0  0  0  0  0  0  0  0
   15.1021   -3.0578    0.0000 H   0  0  0  0  0  0  0  0  0  0  0  0
   18.0866    0.7707    0.0000 H   0  0  0  0  0  0  0  0  0  0  0  0
   18.9573    0.8742    0.0000 H   0  0  0  0  0  0  0  0  0  0  0  0
   18.8538    1.7448    0.0000 H   0  0  0  0  0  0  0  0  0  0  0  0
   13.2589   -1.7581    0.0000 H   0  0  0  0  0  0  0  0  0  0  0  0
   16.2230   -0.0576    0.0000 H   0  0  0  0  0  0  0  0  0  0  0  0
   15.6054    0.5648    0.0000 H   0  0  0  0  0  0  0  0  0  0  0  0
   14.9831   -0.0528    0.0000 H   0  0  0  0  0  0  0  0  0  0  0  0
   16.4570   -3.1786    0.0000 H   0  0  0  0  0  0  0  0  0  0  0  0
   17.5372   -2.6453    0.0000 H   0  0  0  0  0  0  0  0  0  0  0  0
   17.9384   -1.9566    0.0000 H   0  0  0  0  0  0  0  0  0  0  0  0
   15.7896    1.1785    0.0000 H   0  0  0  0  0  0  0  0  0  0  0  0
   14.6893    1.7455    0.0000 H   0  0  0  0  0  0  0  0  0  0  0  0
   14.8832    0.8904    0.0000 H   0  0  0  0  0  0  0  0  0  0  0  0
   15.7383    1.0843    0.0000 H   0  0  0  0  0  0  0  0  0  0  0  0
   12.0632   -2.6891    0.0000 H   0  0  0  0  0  0  0  0  0  0  0  0
   12.6738   -1.1768    0.0000 H   0  0  0  0  0  0  0  0  0  0  0  0
   12.2753   -0.4865    0.0000 H   0  0  0  0  0  0  0  0  0  0  0  0
   11.7341   -0.2591    0.0000 H   0  0  0  0  0  0  0  0  0  0  0  0
    9.7942   -1.3791    0.0000 H   0  0  0  0  0  0  0  0  0  0  0  0
   10.3312   -2.6891    0.0000 H   0  0  0  0  0  0  0  0  0  0  0  0
   19.9327   -0.1919    0.0000 H   0  0  0  0  0  0  0  0  0  0  0  0
    9.1551   -2.0322    0.0000 H   0  0  0  0  0  0  0  0  0  0  0  0
    8.9282   -2.8791    0.0000 H   0  0  0  0  0  0  0  0  0  0  0  0
    9.7751   -3.1060    0.0000 H   0  0  0  0  0  0  0  0  0  0  0  0
   14.3641    4.3581    0.0000 H   0  0  0  0  0  0  0  0  0  0  0  0
   13.5266    4.6176    0.0000 H   0  0  0  0  0  0  0  0  0  0  0  0
   13.2670    3.7801    0.0000 H   0  0  0  0  0  0  0  0  0  0  0  0
    8.5991   -0.4491    0.0000 H   0  0  0  0  0  0  0  0  0  0  0  0
    8.8112   -2.6517    0.0000 H   0  0  0  0  0  0  0  0  0  0  0  0
    9.2097   -1.9614    0.0000 H   0  0  0  0  0  0  0  0  0  0  0  0
    8.2700   -2.8791    0.0000 H   0  0  0  0  0  0  0  0  0  0  0  0
    6.3301   -1.7591    0.0000 H   0  0  0  0  0  0  0  0  0  0  0  0
   20.8054    1.5447    0.0000 H   0  0  0  0  0  0  0  0  0  0  0  0
    6.8671   -0.4491    0.0000 H   0  0  0  0  0  0  0  0  0  0  0  0
   12.3732    0.3940    0.0000 H   0  0  0  0  0  0  0  0  0  0  0  0
   12.6002    1.2409    0.0000 H   0  0  0  0  0  0  0  0  0  0  0  0
   11.7532    1.4678    0.0000 H   0  0  0  0  0  0  0  0  0  0  0  0
    5.1350   -2.6891    0.0000 H   0  0  0  0  0  0  0  0  0  0  0  0
    6.3110   -0.0322    0.0000 H   0  0  0  0  0  0  0  0  0  0  0  0
    5.4641   -0.2591    0.0000 H   0  0  0  0  0  0  0  0  0  0  0  0
    5.6910   -1.1060    0.0000 H   0  0  0  0  0  0  0  0  0  0  0  0
    5.7456   -1.1768    0.0000 H   0  0  0  0  0  0  0  0  0  0  0  0
    5.3471   -0.4865    0.0000 H   0  0  0  0  0  0  0  0  0  0  0  0
    4.8059   -0.2591    0.0000 H   0  0  0  0  0  0  0  0  0  0  0  0
    3.4030   -0.4491    0.0000 H   0  0  0  0  0  0  0  0  0  0  0  0
    3.4030   -2.6891    0.0000 H   0  0  0  0  0  0  0  0  0  0  0  0
   21.1251   -0.8865    0.0000 H   0  0  0  0  0  0  0  0  0  0  0  0
   22.5374    1.5380    0.0000 H   0  0  0  0  0  0  0  0  0  0  0  0
    8.2891   -4.6060    0.0000 H   0  0  0  0  0  0  0  0  0  0  0  0
    9.1360   -4.3791    0.0000 H   0  0  0  0  0  0  0  0  0  0  0  0
    8.9091   -3.5322    0.0000 H   0  0  0  0  0  0  0  0  0  0  0  0
    2.2269   -2.0322    0.0000 H   0  0  0  0  0  0  0  0  0  0  0  0
    2.0000   -2.8791    0.0000 H   0  0  0  0  0  0  0  0  0  0  0  0
    2.8469   -3.1060    0.0000 H   0  0  0  0  0  0  0  0  0  0  0  0
    2.0000   -0.8791    0.0000 H   0  0  0  0  0  0  0  0  0  0  0  0
   22.5250   -1.7019    0.0000 H   0  0  0  0  0  0  0  0  0  0  0  0
   23.9373    0.7226    0.0000 H   0  0  0  0  0  0  0  0  0  0  0  0
   23.9310   -0.8973    0.0000 H   0  0  0  0  0  0  0  0  0  0  0  0
    3.7130    1.4678    0.0000 H   0  0  0  0  0  0  0  0  0  0  0  0
    2.8660    1.2409    0.0000 H   0  0  0  0  0  0  0  0  0  0  0  0
    3.0930    0.3940    0.0000 H   0  0  0  0  0  0  0  0  0  0  0  0
 20  1  1  1  0  0  0
  1 96  1  0  0  0  0
 22  2  1  6  0  0  0
  2 40  1  0  0  0  0
 33  3  1  1  0  0  0
 39  3  1  6  0  0  0
  4 29  1  0  0  0  0
  4 45  1  0  0  0  0
  5 27  2  0  0  0  0
  6 34  2  0  0  0  0
  7 39  1  0  0  0  0
  7 44  1  0  0  0  0
 43  8  1  1  0  0  0
 49  8  1  1  0  0  0
  9 40  2  0  0  0  0
 42 10  1  1  0  0  0
 10 55  1  0  0  0  0
 11 45  2  0  0  0  0
 12 49  1  0  0  0  0
 12 54  1  0  0  0  0
 52 13  1  6  0  0  0
 56 13  1  6  0  0  0
 51 14  1  6  0  0  0
 14 65  1  0  0  0  0
 15 56  1  0  0  0  0
 15 62  1  0  0  0  0
 60 16  1  1  0  0  0
 16 70  1  0  0  0  0
 61 17  1  1  0  0  0
 17140  1  0  0  0  0
 18 20  1  0  0  0  0
 18 22  1  0  0  0  0
 18 27  1  0  0  0  0
 18 32  1  1  0  0  0
 19 21  1  0  0  0  0
 19 24  1  0  0  0  0
 19 26  1  0  0  0  0
 19 35  1  1  0  0  0
 20 25  1  0  0  0  0
 20 29  1  0  0  0  0
 21 23  1  1  0  0  0
 21 34  1  0  0  0  0
 21 71  1  0  0  0  0
 22 23  1  0  0  0  0
 22 72  1  0  0  0  0
 23 73  1  0  0  0  0
 23 74  1  0  0  0  0
 24 30  1  0  0  0  0
 24 75  1  0  0  0  0
 24 76  1  0  0  0  0
 25 28  1  0  0  0  0
 25 77  1  0  0  0  0
 25 78  1  0  0  0  0
 26 31  1  0  0  0  0
 26 36  2  0  0  0  0
 27 28  1  0  0  0  0
 28 79  1  0  0  0  0
 28 80  1  0  0  0  0
 29 38  1  0  0  0  0
 29 81  1  0  0  0  0
 30 33  1  0  0  0  0
 30 82  1  0  0  0  0
 30 83  1  0  0  0  0
 31 33  1  0  0  0  0
 31 84  1  0  0  0  0
 31 85  1  0  0  0  0
 32 86  1  0  0  0  0
 32 87  1  0  0  0  0
 32 88  1  0  0  0  0
 33 89  1  0  0  0  0
 34 37  1  0  0  0  0
 35 90  1  0  0  0  0
 35 91  1  0  0  0  0
 35 92  1  0  0  0  0
 36 37  1  0  0  0  0
 36 93  1  0  0  0  0
 37 94  1  0  0  0  0
 37 95  1  0  0  0  0
 38 97  1  0  0  0  0
 38 98  1  0  0  0  0
 38 99  1  0  0  0  0
 39 41  1  0  0  0  0
 39100  1  0  0  0  0
 40 46  1  0  0  0  0
 41 42  1  0  0  0  0
 41101  1  0  0  0  0
 41102  1  0  0  0  0
 42 43  1  0  0  0  0
 42103  1  0  0  0  0
 43 44  1  0  0  0  0
 43104  1  0  0  0  0
 44 47  1  6  0  0  0
 44105  1  0  0  0  0
 45 48  1  0  0  0  0
 46 53  2  0  0  0  0
 46106  1  0  0  0  0
 47107  1  0  0  0  0
 47108  1  0  0  0  0
 47109  1  0  0  0  0
 48110  1  0  0  0  0
 48111  1  0  0  0  0
 48112  1  0  0  0  0
 49 50  1  0  0  0  0
 49113  1  0  0  0  0
 50 51  1  0  0  0  0
 50114  1  0  0  0  0
 50115  1  0  0  0  0
 51 52  1  0  0  0  0
 51116  1  0  0  0  0
 52 54  1  0  0  0  0
 52117  1  0  0  0  0
 53 58  1  0  0  0  0
 53118  1  0  0  0  0
 54 57  1  6  0  0  0
 54119  1  0  0  0  0
 55120  1  0  0  0  0
 55121  1  0  0  0  0
 55122  1  0  0  0  0
 56 59  1  0  0  0  0
 56123  1  0  0  0  0
 57124  1  0  0  0  0
 57125  1  0  0  0  0
 57126  1  0  0  0  0
 58 63  2  0  0  0  0
 58 64  1  0  0  0  0
 59 60  1  0  0  0  0
 59127  1  0  0  0  0
 59128  1  0  0  0  0
 60 61  1  0  0  0  0
 60129  1  0  0  0  0
 61 62  1  0  0  0  0
 61130  1  0  0  0  0
 62 66  1  6  0  0  0
 62131  1  0  0  0  0
 63 67  1  0  0  0  0
 63132  1  0  0  0  0
 64 68  2  0  0  0  0
 64133  1  0  0  0  0
 65134  1  0  0  0  0
 65135  1  0  0  0  0
 65136  1  0  0  0  0
 66137  1  0  0  0  0
 66138  1  0  0  0  0
 66139  1  0  0  0  0
 67 69  2  0  0  0  0
 67141  1  0  0  0  0
 68 69  1  0  0  0  0
 68142  1  0  0  0  0
 69143  1  0  0  0  0
 70144  1  0  0  0  0
 70145  1  0  0  0  0
 70146  1  0  0  0  0
M  END
> <PUBCHEM_COMPOUND_CID>
102165355

> <PUBCHEM_COMPOUND_CANONICALIZED>
1

> <PUBCHEM_CACTVS_COMPLEXITY>
1880

> <PUBCHEM_CACTVS_HBOND_ACCEPTOR>
17

> <PUBCHEM_CACTVS_HBOND_DONOR>
2

> <PUBCHEM_CACTVS_ROTATABLE_BOND>
19

> <PUBCHEM_CACTVS_SUBSKEYS>
AAADcfB8PgAAAAAAAAAAAAAAAAAAAYAAAAA0aJECAAAAAACBAAAAGgAACAAAD1SwmAMyCIAABgCIAqDSCAACAAAgAAAIiAEAAMgZNDaAMRCicAAl4AAPqYfK7PzPgAAAAAAAAABAAAAAAAAAAAAADAAAAA==

> <PUBCHEM_IUPAC_OPENEYE_NAME>
[(1R)-1-[(1R,2S)-2-(1-acetoxyethyl)-2-hydroxy-1-methyl-5-oxo-cyclopentyl]-2-[(1R,6S,8aR)-6-[(2R,4S,5R,6R)-5-[(2S,4S,5R,6S)-5-[(2S,4S,5R,6R)-5-hydroxy-4-methoxy-6-methyl-tetrahydropyran-2-yl]oxy-4-methoxy-6-methyl-tetrahydropyran-2-yl]oxy-4-methoxy-6-methyl-tetrahydropyran-2-yl]oxy-8a-methyl-2-oxo-1,3,5,6,7,8-hexahydronaphthalen-1-yl]ethyl] (E)-3-phenylprop-2-enoate

> <PUBCHEM_IUPAC_CAS_NAME>
(E)-3-phenyl-2-propenoic acid [(1R)-1-[(1R,2S)-2-(1-acetyloxyethyl)-2-hydroxy-1-methyl-5-oxocyclopentyl]-2-[(1R,6S,8aR)-6-[[(2R,4S,5R,6R)-5-[[(2S,4S,5R,6S)-5-[[(2S,4S,5R,6R)-5-hydroxy-4-methoxy-6-methyl-2-oxanyl]oxy]-4-methoxy-6-methyl-2-oxanyl]oxy]-4-methoxy-6-methyl-2-oxanyl]oxy]-8a-methyl-2-oxo-1,3,5,6,7,8-hexahydronaphthalen-1-yl]ethyl] ester

> <PUBCHEM_IUPAC_NAME_MARKUP>
[(1<I>R</I>)-1-[(1<I>R</I>,2<I>S</I>)-2-(1-acetyloxyethyl)-2-hydroxy-1-methyl-5-oxocyclopentyl]-2-[(1<I>R</I>,6<I>S</I>,8<I>a</I><I>R</I>)-6-[(2<I>R</I>,4<I>S</I>,5<I>R</I>,6<I>R</I>)-5-[(2<I>S</I>,4<I>S</I>,5<I>R</I>,6<I>S</I>)-5-[(2<I>S</I>,4<I>S</I>,5<I>R</I>,6<I>R</I>)-5-hydroxy-4-methoxy-6-methyloxan-2-yl]oxy-4-methoxy-6-methyloxan-2-yl]oxy-4-methoxy-6-methyloxan-2-yl]oxy-8<I>a</I>-methyl-2-oxo-1,3,5,6,7,8-hexahydronaphthalen-1-yl]ethyl] (<I>E</I>)-3-phenylprop-2-enoate

> <PUBCHEM_IUPAC_NAME>
[(1R)-1-[(1R,2S)-2-(1-acetyloxyethyl)-2-hydroxy-1-methyl-5-oxocyclopentyl]-2-[(1R,6S,8aR)-6-[(2R,4S,5R,6R)-5-[(2S,4S,5R,6S)-5-[(2S,4S,5R,6R)-5-hydroxy-4-methoxy-6-methyloxan-2-yl]oxy-4-methoxy-6-methyloxan-2-yl]oxy-4-methoxy-6-methyloxan-2-yl]oxy-8a-methyl-2-oxo-1,3,5,6,7,8-hexahydronaphthalen-1-yl]ethyl] (E)-3-phenylprop-2-enoate

> <PUBCHEM_IUPAC_SYSTEMATIC_NAME>
[(1R)-1-[(1R,2S)-2-(1-acetyloxyethyl)-1-methyl-2-oxidanyl-5-oxidanylidene-cyclopentyl]-2-[(1R,6S,8aR)-6-[(2R,4S,5R,6R)-4-methoxy-5-[(2S,4S,5R,6S)-4-methoxy-5-[(2S,4S,5R,6R)-4-methoxy-6-methyl-5-oxidanyl-oxan-2-yl]oxy-6-methyl-oxan-2-yl]oxy-6-methyl-oxan-2-yl]oxy-8a-methyl-2-oxidanylidene-1,3,5,6,7,8-hexahydronaphthalen-1-yl]ethyl] (E)-3-phenylprop-2-enoate

> <PUBCHEM_IUPAC_TRADITIONAL_NAME>
(E)-3-phenylacrylic acid [(1R)-1-[(1R,2S)-2-(1-acetoxyethyl)-2-hydroxy-5-keto-1-methyl-cyclopentyl]-2-[(1R,6S,8aR)-6-[(2R,4S,5R,6R)-5-[(2S,4S,5R,6S)-5-[(2S,4S,5R,6R)-5-hydroxy-4-methoxy-6-methyl-tetrahydropyran-2-yl]oxy-4-methoxy-6-methyl-tetrahydropyran-2-yl]oxy-4-methoxy-6-methyl-tetrahydropyran-2-yl]oxy-2-keto-8a-methyl-1,3,5,6,7,8-hexahydronaphthalen-1-yl]ethyl] ester

> <PUBCHEM_IUPAC_INCHI>
InChI=1S/C53H76O17/c1-29-48(58)39(60-8)26-46(63-29)69-50-31(3)65-47(28-41(50)62-10)70-49-30(2)64-45(27-40(49)61-9)67-36-20-22-51(6)35(24-36)17-18-38(55)37(51)25-43(68-44(57)19-16-34-14-12-11-13-15-34)52(7)42(56)21-23-53(52,59)32(4)66-33(5)54/h11-17,19,29-32,36-37,39-41,43,45-50,58-59H,18,20-28H2,1-10H3/b19-16+/t29-,30-,31+,32?,36+,37+,39+,40+,41+,43-,45+,46+,47+,48-,49-,50-,51+,52-,53-/m1/s1

> <PUBCHEM_IUPAC_INCHIKEY>
ZJWOQTDHUGTWRL-JRSDRZMQSA-N

> <PUBCHEM_XLOGP3_AA>
4.2

> <PUBCHEM_EXACT_MASS>
984.508251

> <PUBCHEM_MOLECULAR_FORMULA>
C53H76O17

> <PUBCHEM_MOLECULAR_WEIGHT>
985.2

> <PUBCHEM_OPENEYE_CAN_SMILES>
CC1C(C(CC(O1)OC2C(OC(CC2OC)OC3C(OC(CC3OC)OC4CCC5(C(C(=O)CC=C5C4)CC(C6(C(=O)CCC6(C(C)OC(=O)C)O)C)OC(=O)C=CC7=CC=CC=C7)C)C)C)OC)O

> <PUBCHEM_OPENEYE_ISO_SMILES>
C[C@@H]1[C@H]([C@H](C[C@@H](O1)O[C@@H]2[C@@H](O[C@H](C[C@@H]2OC)O[C@@H]3[C@H](O[C@H](C[C@@H]3OC)O[C@H]4CC[C@@]5([C@H](C(=O)CC=C5C4)C[C@H]([C@]6(C(=O)CC[C@]6(C(C)OC(=O)C)O)C)OC(=O)/C=C/C7=CC=CC=C7)C)C)C)OC)O

> <PUBCHEM_CACTVS_TPSA>
210

> <PUBCHEM_MONOISOTOPIC_WEIGHT>
984.508251

> <PUBCHEM_TOTAL_CHARGE>
0

> <PUBCHEM_HEAVY_ATOM_COUNT>
70

> <PUBCHEM_ATOM_DEF_STEREO_COUNT>
18

> <PUBCHEM_ATOM_UDEF_STEREO_COUNT>
1

> <PUBCHEM_BOND_DEF_STEREO_COUNT>
1

> <PUBCHEM_BOND_UDEF_STEREO_COUNT>
0

> <PUBCHEM_ISOTOPIC_ATOM_COUNT>
0

> <PUBCHEM_COMPONENT_COUNT>
1

> <PUBCHEM_CACTVS_TAUTO_COUNT>
-1

> <PUBCHEM_COORDINATE_TYPE>
1
5
255

> <PUBCHEM_BONDANNOTATIONS>
20  1  5
42  10  5
52  13  6
56  13  6
51  14  6
60  16  5
61  17  5
18  32  5
19  35  5
22  2  6
21  23  5
29  38  3
33  3  5
39  3  6
44  47  6
54  57  6
58  63  8
58  64  8
62  66  6
63  67  8
64  68  8
67  69  8
68  69  8
43  8  5
49  8  5

$$$$
