132916344
  -OEChem-09022014362D

176184  0     1  0  0  0  0  0999 V2000
   22.1241    2.8968    0.0000 O   0  0  0  0  0  0  0  0  0  0  0  0
   21.5601    3.2253    0.0000 O   0  0  0  0  0  0  0  0  0  0  0  0
   22.4086   -0.3004    0.0000 O   0  0  0  0  0  0  0  0  0  0  0  0
   20.9028   -0.5382    0.0000 O   0  0  0  0  0  0  0  0  0  0  0  0
   24.4418    0.4653    0.0000 O   0  0  0  0  0  0  0  0  0  0  0  0
   16.3933    4.0315    0.0000 O   0  0  0  0  0  0  0  0  0  0  0  0
   19.1708   -0.5316    0.0000 O   0  0  0  0  0  0  0  0  0  0  0  0
   14.6613    4.0315    0.0000 O   0  0  0  0  0  0  0  0  0  0  0  0
   25.1430   -1.1185    0.0000 O   0  0  0  0  0  0  0  0  0  0  0  0
   14.6613    1.0315    0.0000 O   0  0  0  0  0  0  0  0  0  0  0  0
   12.9292    2.0315    0.0000 O   0  0  0  0  0  0  0  0  0  0  0  0
   11.1972    2.0315    0.0000 O   0  0  0  0  0  0  0  0  0  0  0  0
   11.1972    5.0315    0.0000 O   0  0  0  0  0  0  0  0  0  0  0  0
    9.4651    4.0315    0.0000 O   0  0  0  0  0  0  0  0  0  0  0  0
    7.7331    4.0315    0.0000 O   0  0  0  0  0  0  0  0  0  0  0  0
    7.7331    1.0315    0.0000 O   0  0  0  0  0  0  0  0  0  0  0  0
    6.0010    2.0315    0.0000 O   0  0  0  0  0  0  0  0  0  0  0  0
    4.2690    2.0315    0.0000 O   0  0  0  0  0  0  0  0  0  0  0  0
    4.2690    5.0315    0.0000 O   0  0  0  0  0  0  0  0  0  0  0  0
    2.5369    4.0315    0.0000 O   0  0  0  0  0  0  0  0  0  0  0  0
   21.7746    0.9584    0.0000 C   0  0  1  0  0  0  0  0  0  0  0  0
   21.7785    1.9584    0.0000 C   0  0  2  0  0  0  0  0  0  0  0  0
   20.9144    2.4618    0.0000 C   0  0  2  0  0  0  0  0  0  0  0  0
   20.0464    1.9651    0.0000 C   0  0  1  0  0  0  0  0  0  0  0  0
   22.7197    0.6500    0.0000 C   0  0  2  0  0  0  0  0  0  0  0  0
   20.9067    0.4618    0.0000 C   0  0  1  0  0  0  0  0  0  0  0  0
   22.7259    2.2595    0.0000 C   0  0  0  0  0  0  0  0  0  0  0  0
   19.1384    2.4754    0.0000 C   0  0  2  0  0  0  0  0  0  0  0  0
   20.0426    0.9651    0.0000 C   0  0  0  0  0  0  0  0  0  0  0  0
   23.3064    1.4525    0.0000 C   0  0  0  0  0  0  0  0  0  0  0  0
   20.9345    3.5032    0.0000 C   0  0  0  0  0  0  0  0  0  0  0  0
   21.7708   -0.0416    0.0000 C   0  0  0  0  0  0  0  0  0  0  0  0
   19.1344    3.5171    0.0000 C   0  0  0  0  0  0  0  0  0  0  0  0
   23.5274    0.0605    0.0000 C   0  0  2  0  0  0  0  0  0  0  0  0
   18.2094    1.9149    0.0000 C   0  0  0  0  0  0  0  0  0  0  0  0
   20.0385    4.0344    0.0000 C   0  0  0  0  0  0  0  0  0  0  0  0
   19.1423    1.4754    0.0000 C   0  0  0  0  0  0  0  0  0  0  0  0
   18.2011    4.0704    0.0000 C   0  0  0  0  0  0  0  0  0  0  0  0
   17.2635    2.4465    0.0000 C   0  0  0  0  0  0  0  0  0  0  0  0
   17.2594    3.5315    0.0000 C   0  0  2  0  0  0  0  0  0  0  0  0
   23.4208   -0.9338    0.0000 C   0  0  0  0  0  0  0  0  0  0  0  0
   20.0349   -1.0349    0.0000 C   0  0  0  0  0  0  0  0  0  0  0  0
   25.2496   -0.1242    0.0000 C   0  0  0  0  0  0  0  0  0  0  0  0
   15.5273    3.5315    0.0000 C   0  0  2  0  0  0  0  0  0  0  0  0
   20.0310   -2.0349    0.0000 C   0  0  0  0  0  0  0  0  0  0  0  0
   26.1640    0.2806    0.0000 C   0  0  1  0  0  0  0  0  0  0  0  0
   15.5273    2.5315    0.0000 C   0  0  0  0  0  0  0  0  0  0  0  0
   14.6613    2.0315    0.0000 C   0  0  1  0  0  0  0  0  0  0  0  0
   26.9718   -0.3089    0.0000 C   0  0  0  0  0  0  0  0  0  0  0  0
   19.1631   -2.5315    0.0000 C   0  0  0  0  0  0  0  0  0  0  0  0
   26.2706    1.2749    0.0000 C   0  0  0  0  0  0  0  0  0  0  0  0
   13.7953    3.5315    0.0000 C   0  0  1  0  0  0  0  0  0  0  0  0
   13.7953    2.5315    0.0000 C   0  0  1  0  0  0  0  0  0  0  0  0
   27.8862    0.0959    0.0000 C   0  0  0  0  0  0  0  0  0  0  0  0
   19.1592   -3.5315    0.0000 C   0  0  0  0  0  0  0  0  0  0  0  0
   12.9292    4.0315    0.0000 C   0  0  0  0  0  0  0  0  0  0  0  0
   12.0632    2.5315    0.0000 C   0  0  2  0  0  0  0  0  0  0  0  0
   18.2913   -4.0282    0.0000 C   0  0  0  0  0  0  0  0  0  0  0  0
   20.0233   -4.0349    0.0000 C   0  0  0  0  0  0  0  0  0  0  0  0
   12.0632    3.5315    0.0000 C   0  0  0  0  0  0  0  0  0  0  0  0
   18.2874   -5.0282    0.0000 C   0  0  0  0  0  0  0  0  0  0  0  0
   20.0195   -5.0349    0.0000 C   0  0  0  0  0  0  0  0  0  0  0  0
   11.1972    4.0315    0.0000 C   0  0  1  0  0  0  0  0  0  0  0  0
   10.3312    2.5315    0.0000 C   0  0  2  0  0  0  0  0  0  0  0  0
   19.1515   -5.5315    0.0000 C   0  0  0  0  0  0  0  0  0  0  0  0
   10.3312    3.5315    0.0000 C   0  0  1  0  0  0  0  0  0  0  0  0
    9.4651    2.0315    0.0000 C   0  0  0  0  0  0  0  0  0  0  0  0
    8.5991    3.5315    0.0000 C   0  0  2  0  0  0  0  0  0  0  0  0
   12.0632    5.5315    0.0000 C   0  0  0  0  0  0  0  0  0  0  0  0
    8.5991    2.5315    0.0000 C   0  0  0  0  0  0  0  0  0  0  0  0
    7.7331    2.0315    0.0000 C   0  0  1  0  0  0  0  0  0  0  0  0
    6.8671    3.5315    0.0000 C   0  0  1  0  0  0  0  0  0  0  0  0
    6.8671    2.5315    0.0000 C   0  0  1  0  0  0  0  0  0  0  0  0
    6.0010    4.0315    0.0000 C   0  0  0  0  0  0  0  0  0  0  0  0
    5.1350    2.5315    0.0000 C   0  0  2  0  0  0  0  0  0  0  0  0
    5.1350    3.5315    0.0000 C   0  0  0  0  0  0  0  0  0  0  0  0
    8.5991    0.5315    0.0000 C   0  0  0  0  0  0  0  0  0  0  0  0
    4.2690    4.0315    0.0000 C   0  0  2  0  0  0  0  0  0  0  0  0
    3.4030    3.5315    0.0000 C   0  0  2  0  0  0  0  0  0  0  0  0
    3.4030    2.5315    0.0000 C   0  0  2  0  0  0  0  0  0  0  0  0
    2.5369    2.0315    0.0000 C   0  0  0  0  0  0  0  0  0  0  0  0
    3.4030    5.5315    0.0000 C   0  0  0  0  0  0  0  0  0  0  0  0
   20.7809    1.5373    0.0000 H   0  0  0  0  0  0  0  0  0  0  0  0
   20.3685    0.1538    0.0000 H   0  0  0  0  0  0  0  0  0  0  0  0
   23.2644    2.5666    0.0000 H   0  0  0  0  0  0  0  0  0  0  0  0
   22.4770    2.8274    0.0000 H   0  0  0  0  0  0  0  0  0  0  0  0
   19.4324    1.0751    0.0000 H   0  0  0  0  0  0  0  0  0  0  0  0
   19.8283    0.3833    0.0000 H   0  0  0  0  0  0  0  0  0  0  0  0
   23.7656    1.0360    0.0000 H   0  0  0  0  0  0  0  0  0  0  0  0
   23.7688    1.8655    0.0000 H   0  0  0  0  0  0  0  0  0  0  0  0
   21.5432    3.3853    0.0000 H   0  0  0  0  0  0  0  0  0  0  0  0
   21.1547    4.0827    0.0000 H   0  0  0  0  0  0  0  0  0  0  0  0
   21.1508   -0.0392    0.0000 H   0  0  0  0  0  0  0  0  0  0  0  0
   21.7684   -0.6616    0.0000 H   0  0  0  0  0  0  0  0  0  0  0  0
   22.3908   -0.0440    0.0000 H   0  0  0  0  0  0  0  0  0  0  0  0
   23.5935    0.6770    0.0000 H   0  0  0  0  0  0  0  0  0  0  0  0
   17.8176    1.4344    0.0000 H   0  0  0  0  0  0  0  0  0  0  0  0
   18.6158    1.4467    0.0000 H   0  0  0  0  0  0  0  0  0  0  0  0
   20.0432    4.6544    0.0000 H   0  0  0  0  0  0  0  0  0  0  0  0
   22.7351    3.0021    0.0000 H   0  0  0  0  0  0  0  0  0  0  0  0
   18.5223    1.4731    0.0000 H   0  0  0  0  0  0  0  0  0  0  0  0
   19.1446    0.8555    0.0000 H   0  0  0  0  0  0  0  0  0  0  0  0
   19.7622    1.4778    0.0000 H   0  0  0  0  0  0  0  0  0  0  0  0
   21.6701    3.8355    0.0000 H   0  0  0  0  0  0  0  0  0  0  0  0
   18.6039    4.5417    0.0000 H   0  0  0  0  0  0  0  0  0  0  0  0
   17.8056    4.5479    0.0000 H   0  0  0  0  0  0  0  0  0  0  0  0
   22.8225   -0.7620    0.0000 H   0  0  0  0  0  0  0  0  0  0  0  0
   16.6523    2.5503    0.0000 H   0  0  0  0  0  0  0  0  0  0  0  0
   17.0567    1.8620    0.0000 H   0  0  0  0  0  0  0  0  0  0  0  0
   16.7230    3.2205    0.0000 H   0  0  0  0  0  0  0  0  0  0  0  0
   22.8043   -0.8676    0.0000 H   0  0  0  0  0  0  0  0  0  0  0  0
   23.3547   -1.5502    0.0000 H   0  0  0  0  0  0  0  0  0  0  0  0
   24.0373   -0.9999    0.0000 H   0  0  0  0  0  0  0  0  0  0  0  0
   15.5273    4.1515    0.0000 H   0  0  0  0  0  0  0  0  0  0  0  0
   20.5668   -2.3470    0.0000 H   0  0  0  0  0  0  0  0  0  0  0  0
   25.6632    0.6461    0.0000 H   0  0  0  0  0  0  0  0  0  0  0  0
   15.7394    1.9489    0.0000 H   0  0  0  0  0  0  0  0  0  0  0  0
   16.1379    2.6392    0.0000 H   0  0  0  0  0  0  0  0  0  0  0  0
   14.1244    1.7215    0.0000 H   0  0  0  0  0  0  0  0  0  0  0  0
   26.5249   -0.7386    0.0000 H   0  0  0  0  0  0  0  0  0  0  0  0
   27.3174   -0.8236    0.0000 H   0  0  0  0  0  0  0  0  0  0  0  0
   18.6273   -2.2195    0.0000 H   0  0  0  0  0  0  0  0  0  0  0  0
   26.8871    1.2088    0.0000 H   0  0  0  0  0  0  0  0  0  0  0  0
   26.3368    1.8914    0.0000 H   0  0  0  0  0  0  0  0  0  0  0  0
   25.6542    1.3410    0.0000 H   0  0  0  0  0  0  0  0  0  0  0  0
   13.7953    4.1515    0.0000 H   0  0  0  0  0  0  0  0  0  0  0  0
   13.2583    2.8415    0.0000 H   0  0  0  0  0  0  0  0  0  0  0  0
   28.1372   -0.4710    0.0000 H   0  0  0  0  0  0  0  0  0  0  0  0
   28.4531    0.3469    0.0000 H   0  0  0  0  0  0  0  0  0  0  0  0
   27.6352    0.6629    0.0000 H   0  0  0  0  0  0  0  0  0  0  0  0
   13.2392    4.5684    0.0000 H   0  0  0  0  0  0  0  0  0  0  0  0
   12.3923    4.3415    0.0000 H   0  0  0  0  0  0  0  0  0  0  0  0
   12.6192    3.4946    0.0000 H   0  0  0  0  0  0  0  0  0  0  0  0
   15.1982    0.7215    0.0000 H   0  0  0  0  0  0  0  0  0  0  0  0
   12.0632    1.9115    0.0000 H   0  0  0  0  0  0  0  0  0  0  0  0
   17.7555   -3.7161    0.0000 H   0  0  0  0  0  0  0  0  0  0  0  0
   20.5614   -3.7269    0.0000 H   0  0  0  0  0  0  0  0  0  0  0  0
   12.6738    3.4238    0.0000 H   0  0  0  0  0  0  0  0  0  0  0  0
   12.2753    4.1141    0.0000 H   0  0  0  0  0  0  0  0  0  0  0  0
   17.7493   -5.3361    0.0000 H   0  0  0  0  0  0  0  0  0  0  0  0
   20.5552   -5.3469    0.0000 H   0  0  0  0  0  0  0  0  0  0  0  0
   11.7341    4.3415    0.0000 H   0  0  0  0  0  0  0  0  0  0  0  0
   10.3312    1.9115    0.0000 H   0  0  0  0  0  0  0  0  0  0  0  0
   19.1491   -6.1515    0.0000 H   0  0  0  0  0  0  0  0  0  0  0  0
   10.3312    4.1515    0.0000 H   0  0  0  0  0  0  0  0  0  0  0  0
    9.1551    2.5684    0.0000 H   0  0  0  0  0  0  0  0  0  0  0  0
    8.9282    1.7215    0.0000 H   0  0  0  0  0  0  0  0  0  0  0  0
    9.7751    1.4946    0.0000 H   0  0  0  0  0  0  0  0  0  0  0  0
    8.5991    4.1515    0.0000 H   0  0  0  0  0  0  0  0  0  0  0  0
   12.3732    4.9946    0.0000 H   0  0  0  0  0  0  0  0  0  0  0  0
   12.6002    5.8415    0.0000 H   0  0  0  0  0  0  0  0  0  0  0  0
   11.7532    6.0684    0.0000 H   0  0  0  0  0  0  0  0  0  0  0  0
    8.8112    1.9489    0.0000 H   0  0  0  0  0  0  0  0  0  0  0  0
    9.2097    2.6392    0.0000 H   0  0  0  0  0  0  0  0  0  0  0  0
    8.2700    1.7215    0.0000 H   0  0  0  0  0  0  0  0  0  0  0  0
    6.8671    4.1515    0.0000 H   0  0  0  0  0  0  0  0  0  0  0  0
    6.3301    2.8415    0.0000 H   0  0  0  0  0  0  0  0  0  0  0  0
    6.3110    4.5684    0.0000 H   0  0  0  0  0  0  0  0  0  0  0  0
    5.4641    4.3415    0.0000 H   0  0  0  0  0  0  0  0  0  0  0  0
    5.6910    3.4946    0.0000 H   0  0  0  0  0  0  0  0  0  0  0  0
    5.1350    1.9115    0.0000 H   0  0  0  0  0  0  0  0  0  0  0  0
    5.7456    3.4239    0.0000 H   0  0  0  0  0  0  0  0  0  0  0  0
    5.3471    4.1141    0.0000 H   0  0  0  0  0  0  0  0  0  0  0  0
    8.2891   -0.0054    0.0000 H   0  0  0  0  0  0  0  0  0  0  0  0
    9.1360    0.2215    0.0000 H   0  0  0  0  0  0  0  0  0  0  0  0
    8.9091    1.0684    0.0000 H   0  0  0  0  0  0  0  0  0  0  0  0
    4.8059    4.3415    0.0000 H   0  0  0  0  0  0  0  0  0  0  0  0
    3.4030    4.1515    0.0000 H   0  0  0  0  0  0  0  0  0  0  0  0
    3.4030    1.9115    0.0000 H   0  0  0  0  0  0  0  0  0  0  0  0
    2.2269    2.5684    0.0000 H   0  0  0  0  0  0  0  0  0  0  0  0
    2.0000    1.7215    0.0000 H   0  0  0  0  0  0  0  0  0  0  0  0
    2.8469    1.4946    0.0000 H   0  0  0  0  0  0  0  0  0  0  0  0
    2.0000    3.7215    0.0000 H   0  0  0  0  0  0  0  0  0  0  0  0
    3.7130    6.0684    0.0000 H   0  0  0  0  0  0  0  0  0  0  0  0
    2.8660    5.8415    0.0000 H   0  0  0  0  0  0  0  0  0  0  0  0
    3.0930    4.9946    0.0000 H   0  0  0  0  0  0  0  0  0  0  0  0
 22  1  1  6  0  0  0
  1100  1  0  0  0  0
 23  2  1  6  0  0  0
  2104  1  0  0  0  0
 25  3  1  6  0  0  0
  3107  1  0  0  0  0
 26  4  1  6  0  0  0
  4 42  1  0  0  0  0
 34  5  1  1  0  0  0
  5 43  1  0  0  0  0
 40  6  1  6  0  0  0
 44  6  1  1  0  0  0
  7 42  2  0  0  0  0
  8 44  1  0  0  0  0
  8 52  1  0  0  0  0
  9 43  2  0  0  0  0
 48 10  1  6  0  0  0
 10134  1  0  0  0  0
 53 11  1  6  0  0  0
 57 11  1  6  0  0  0
 12 57  1  0  0  0  0
 12 64  1  0  0  0  0
 63 13  1  1  0  0  0
 13 69  1  0  0  0  0
 66 14  1  1  0  0  0
 68 14  1  1  0  0  0
 15 68  1  0  0  0  0
 15 72  1  0  0  0  0
 71 16  1  6  0  0  0
 16 77  1  0  0  0  0
 73 17  1  6  0  0  0
 75 17  1  6  0  0  0
 18 75  1  0  0  0  0
 18 80  1  0  0  0  0
 78 19  1  6  0  0  0
 19 82  1  0  0  0  0
 79 20  1  6  0  0  0
 20173  1  0  0  0  0
 21 22  1  0  0  0  0
 21 25  1  0  0  0  0
 21 26  1  0  0  0  0
 21 32  1  6  0  0  0
 22 23  1  0  0  0  0
 22 27  1  0  0  0  0
 23 24  1  0  0  0  0
 23 31  1  0  0  0  0
 24 28  1  0  0  0  0
 24 29  1  0  0  0  0
 24 83  1  1  0  0  0
 25 30  1  0  0  0  0
 25 34  1  0  0  0  0
 26 29  1  0  0  0  0
 26 84  1  0  0  0  0
 27 30  1  0  0  0  0
 27 85  1  0  0  0  0
 27 86  1  0  0  0  0
 28 33  1  0  0  0  0
 28 35  1  0  0  0  0
 28 37  1  6  0  0  0
 29 87  1  0  0  0  0
 29 88  1  0  0  0  0
 30 89  1  0  0  0  0
 30 90  1  0  0  0  0
 31 36  1  0  0  0  0
 31 91  1  0  0  0  0
 31 92  1  0  0  0  0
 32 93  1  0  0  0  0
 32 94  1  0  0  0  0
 32 95  1  0  0  0  0
 33 36  2  0  0  0  0
 33 38  1  0  0  0  0
 34 41  1  0  0  0  0
 34 96  1  0  0  0  0
 35 39  1  0  0  0  0
 35 97  1  0  0  0  0
 35 98  1  0  0  0  0
 36 99  1  0  0  0  0
 37101  1  0  0  0  0
 37102  1  0  0  0  0
 37103  1  0  0  0  0
 38 40  1  0  0  0  0
 38105  1  0  0  0  0
 38106  1  0  0  0  0
 39 40  1  0  0  0  0
 39108  1  0  0  0  0
 39109  1  0  0  0  0
 40110  1  0  0  0  0
 41111  1  0  0  0  0
 41112  1  0  0  0  0
 41113  1  0  0  0  0
 42 45  1  0  0  0  0
 43 46  1  0  0  0  0
 44 47  1  0  0  0  0
 44114  1  0  0  0  0
 45 50  2  0  0  0  0
 45115  1  0  0  0  0
 46 49  1  0  0  0  0
 46 51  1  6  0  0  0
 46116  1  0  0  0  0
 47 48  1  0  0  0  0
 47117  1  0  0  0  0
 47118  1  0  0  0  0
 48 53  1  0  0  0  0
 48119  1  0  0  0  0
 49 54  1  0  0  0  0
 49120  1  0  0  0  0
 49121  1  0  0  0  0
 50 55  1  0  0  0  0
 50122  1  0  0  0  0
 51123  1  0  0  0  0
 51124  1  0  0  0  0
 51125  1  0  0  0  0
 52 53  1  0  0  0  0
 52 56  1  1  0  0  0
 52126  1  0  0  0  0
 53127  1  0  0  0  0
 54128  1  0  0  0  0
 54129  1  0  0  0  0
 54130  1  0  0  0  0
 55 58  2  0  0  0  0
 55 59  1  0  0  0  0
 56131  1  0  0  0  0
 56132  1  0  0  0  0
 56133  1  0  0  0  0
 57 60  1  0  0  0  0
 57135  1  0  0  0  0
 58 61  1  0  0  0  0
 58136  1  0  0  0  0
 59 62  2  0  0  0  0
 59137  1  0  0  0  0
 60 63  1  0  0  0  0
 60138  1  0  0  0  0
 60139  1  0  0  0  0
 61 65  2  0  0  0  0
 61140  1  0  0  0  0
 62 65  1  0  0  0  0
 62141  1  0  0  0  0
 63 66  1  0  0  0  0
 63142  1  0  0  0  0
 64 66  1  0  0  0  0
 64 67  1  1  0  0  0
 64143  1  0  0  0  0
 65144  1  0  0  0  0
 66145  1  0  0  0  0
 67146  1  0  0  0  0
 67147  1  0  0  0  0
 67148  1  0  0  0  0
 68 70  1  0  0  0  0
 68149  1  0  0  0  0
 69150  1  0  0  0  0
 69151  1  0  0  0  0
 69152  1  0  0  0  0
 70 71  1  0  0  0  0
 70153  1  0  0  0  0
 70154  1  0  0  0  0
 71 73  1  0  0  0  0
 71155  1  0  0  0  0
 72 73  1  0  0  0  0
 72 74  1  1  0  0  0
 72156  1  0  0  0  0
 73157  1  0  0  0  0
 74158  1  0  0  0  0
 74159  1  0  0  0  0
 74160  1  0  0  0  0
 75 76  1  0  0  0  0
 75161  1  0  0  0  0
 76 78  1  0  0  0  0
 76162  1  0  0  0  0
 76163  1  0  0  0  0
 77164  1  0  0  0  0
 77165  1  0  0  0  0
 77166  1  0  0  0  0
 78 79  1  0  0  0  0
 78167  1  0  0  0  0
 79 80  1  0  0  0  0
 79168  1  0  0  0  0
 80 81  1  1  0  0  0
 80169  1  0  0  0  0
 81170  1  0  0  0  0
 81171  1  0  0  0  0
 81172  1  0  0  0  0
 82174  1  0  0  0  0
 82175  1  0  0  0  0
 82176  1  0  0  0  0
M  END
> <PUBCHEM_COMPOUND_CID>
132916344

> <PUBCHEM_COMPOUND_CANONICALIZED>
1

> <PUBCHEM_CACTVS_COMPLEXITY>
2230

> <PUBCHEM_CACTVS_HBOND_ACCEPTOR>
20

> <PUBCHEM_CACTVS_HBOND_DONOR>
5

> <PUBCHEM_CACTVS_ROTATABLE_BOND>
20

> <PUBCHEM_CACTVS_SUBSKEYS>
AAADcfB8PgAAAAAAAAAAAAAAAAAAAYAAAAA0aNEiAAAAAGCBAAAAGgAACAAAD1SwmAMyCIAABgCIAiDSCAACAAAgAAAIiAEAAMgZNDKAMRCicAAlwAAPqYfA4PwPgAAAAAAAAADCAAYQADCAAYQADAAAAA==

> <PUBCHEM_IUPAC_OPENEYE_NAME>
[(1S)-1-[(3S,8S,9R,10R,12R,13R,14R,17S)-8,14,17-trihydroxy-3-[(2R,4S,5S,6R)-4-hydroxy-5-[(2S,4S,5R,6S)-5-[(2S,4S,5R,6R)-5-[(2S,4R,5S,6S)-5-hydroxy-4-methoxy-6-methyl-tetrahydropyran-2-yl]oxy-4-methoxy-6-methyl-tetrahydropyran-2-yl]oxy-4-methoxy-6-methyl-tetrahydropyran-2-yl]oxy-6-methyl-tetrahydropyran-2-yl]oxy-10,13-dimethyl-12-[(E)-3-phenylprop-2-enoyl]oxy-1,2,3,4,7,9,11,12,15,16-decahydrocyclopenta[a]phenanthren-17-yl]ethyl] (2R)-2-methylbutanoate

> <PUBCHEM_IUPAC_CAS_NAME>
(2R)-2-methylbutanoic acid [(1S)-1-[(3S,8S,9R,10R,12R,13R,14R,17S)-8,14,17-trihydroxy-3-[[(2R,4S,5S,6R)-4-hydroxy-5-[[(2S,4S,5R,6S)-5-[[(2S,4S,5R,6R)-5-[[(2S,4R,5S,6S)-5-hydroxy-4-methoxy-6-methyl-2-oxanyl]oxy]-4-methoxy-6-methyl-2-oxanyl]oxy]-4-methoxy-6-methyl-2-oxanyl]oxy]-6-methyl-2-oxanyl]oxy]-10,13-dimethyl-12-[(E)-1-oxo-3-phenylprop-2-enoxy]-1,2,3,4,7,9,11,12,15,16-decahydrocyclopenta[a]phenanthren-17-yl]ethyl] ester

> <PUBCHEM_IUPAC_NAME_MARKUP>
[(1<I>S</I>)-1-[(3<I>S</I>,8<I>S</I>,9<I>R</I>,10<I>R</I>,12<I>R</I>,13<I>R</I>,14<I>R</I>,17<I>S</I>)-8,14,17-trihydroxy-3-[(2<I>R</I>,4<I>S</I>,5<I>S</I>,6<I>R</I>)-4-hydroxy-5-[(2<I>S</I>,4<I>S</I>,5<I>R</I>,6<I>S</I>)-5-[(2<I>S</I>,4<I>S</I>,5<I>R</I>,6<I>R</I>)-5-[(2<I>S</I>,4<I>R</I>,5<I>S</I>,6<I>S</I>)-5-hydroxy-4-methoxy-6-methyloxan-2-yl]oxy-4-methoxy-6-methyloxan-2-yl]oxy-4-methoxy-6-methyloxan-2-yl]oxy-6-methyloxan-2-yl]oxy-10,13-dimethyl-12-[(<I>E</I>)-3-phenylprop-2-enoyl]oxy-1,2,3,4,7,9,11,12,15,16-decahydrocyclopenta[a]phenanthren-17-yl]ethyl] (2<I>R</I>)-2-methylbutanoate

> <PUBCHEM_IUPAC_NAME>
[(1S)-1-[(3S,8S,9R,10R,12R,13R,14R,17S)-8,14,17-trihydroxy-3-[(2R,4S,5S,6R)-4-hydroxy-5-[(2S,4S,5R,6S)-5-[(2S,4S,5R,6R)-5-[(2S,4R,5S,6S)-5-hydroxy-4-methoxy-6-methyloxan-2-yl]oxy-4-methoxy-6-methyloxan-2-yl]oxy-4-methoxy-6-methyloxan-2-yl]oxy-6-methyloxan-2-yl]oxy-10,13-dimethyl-12-[(E)-3-phenylprop-2-enoyl]oxy-1,2,3,4,7,9,11,12,15,16-decahydrocyclopenta[a]phenanthren-17-yl]ethyl] (2R)-2-methylbutanoate

> <PUBCHEM_IUPAC_SYSTEMATIC_NAME>
[(1S)-1-[(3S,8S,9R,10R,12R,13R,14R,17S)-3-[(2R,4S,5S,6R)-5-[(2S,4S,5R,6S)-4-methoxy-5-[(2S,4S,5R,6R)-4-methoxy-5-[(2S,4R,5S,6S)-4-methoxy-6-methyl-5-oxidanyl-oxan-2-yl]oxy-6-methyl-oxan-2-yl]oxy-6-methyl-oxan-2-yl]oxy-6-methyl-4-oxidanyl-oxan-2-yl]oxy-10,13-dimethyl-8,14,17-tris(oxidanyl)-12-[(E)-3-phenylprop-2-enoyl]oxy-1,2,3,4,7,9,11,12,15,16-decahydrocyclopenta[a]phenanthren-17-yl]ethyl] (2R)-2-methylbutanoate

> <PUBCHEM_IUPAC_TRADITIONAL_NAME>
(2R)-2-methylbutyric acid [(1S)-1-[(3S,8S,9R,10R,12R,13R,14R,17S)-8,14,17-trihydroxy-3-[(2R,4S,5S,6R)-4-hydroxy-5-[(2S,4S,5R,6S)-5-[(2S,4S,5R,6R)-5-[(2S,4R,5S,6S)-5-hydroxy-4-methoxy-6-methyl-tetrahydropyran-2-yl]oxy-4-methoxy-6-methyl-tetrahydropyran-2-yl]oxy-4-methoxy-6-methyl-tetrahydropyran-2-yl]oxy-6-methyl-tetrahydropyran-2-yl]oxy-10,13-dimethyl-12-[(E)-3-phenylacryloyl]oxy-1,2,3,4,7,9,11,12,15,16-decahydrocyclopenta[a]phenanthren-17-yl]ethyl] ester

> <PUBCHEM_IUPAC_INCHI>
InChI=1S/C62H94O20/c1-13-33(2)57(66)77-38(7)60(67)25-26-62(69)59(60,9)47(79-48(64)20-19-39-17-15-14-16-18-39)32-46-58(8)23-22-41(27-40(58)21-24-61(46,62)68)78-49-28-42(63)54(35(4)74-49)80-51-30-44(71-11)56(36(5)75-51)82-52-31-45(72-12)55(37(6)76-52)81-50-29-43(70-10)53(65)34(3)73-50/h14-21,33-38,41-47,49-56,63,65,67-69H,13,22-32H2,1-12H3/b20-19+/t33-,34+,35-,36+,37-,38+,41+,42+,43-,44+,45+,46-,47-,49+,50+,51+,52+,53+,54-,55-,56-,58+,59-,60-,61+,62-/m1/s1

> <PUBCHEM_IUPAC_INCHIKEY>
OWGNVMHSCSWGSU-NETSREQYSA-N

> <PUBCHEM_XLOGP3_AA>
5.4

> <PUBCHEM_EXACT_MASS>
1158.633845

> <PUBCHEM_MOLECULAR_FORMULA>
C62H94O20

> <PUBCHEM_MOLECULAR_WEIGHT>
1159.4

> <PUBCHEM_OPENEYE_CAN_SMILES>
CCC(C)C(=O)OC(C)C1(CCC2(C1(C(CC3C2(CC=C4C3(CCC(C4)OC5CC(C(C(O5)C)OC6CC(C(C(O6)C)OC7CC(C(C(O7)C)OC8CC(C(C(O8)C)O)OC)OC)OC)O)C)O)OC(=O)C=CC9=CC=CC=C9)C)O)O

> <PUBCHEM_OPENEYE_ISO_SMILES>
CC[C@@H](C)C(=O)O[C@@H](C)[C@@]1(CC[C@]2([C@@]1([C@@H](C[C@H]3[C@]2(CC=C4[C@@]3(CC[C@@H](C4)O[C@H]5C[C@@H]([C@@H]([C@H](O5)C)O[C@H]6C[C@@H]([C@@H]([C@@H](O6)C)O[C@H]7C[C@@H]([C@@H]([C@H](O7)C)O[C@H]8C[C@H]([C@H]([C@@H](O8)C)O)OC)OC)OC)O)C)O)OC(=O)/C=C/C9=CC=CC=C9)C)O)O

> <PUBCHEM_CACTVS_TPSA>
255

> <PUBCHEM_MONOISOTOPIC_WEIGHT>
1158.633845

> <PUBCHEM_TOTAL_CHARGE>
0

> <PUBCHEM_HEAVY_ATOM_COUNT>
82

> <PUBCHEM_ATOM_DEF_STEREO_COUNT>
26

> <PUBCHEM_ATOM_UDEF_STEREO_COUNT>
0

> <PUBCHEM_BOND_DEF_STEREO_COUNT>
1

> <PUBCHEM_BOND_UDEF_STEREO_COUNT>
0

> <PUBCHEM_ISOTOPIC_ATOM_COUNT>
0

> <PUBCHEM_COMPONENT_COUNT>
1

> <PUBCHEM_CACTVS_TAUTO_COUNT>
-1

> <PUBCHEM_COORDINATE_TYPE>
1
5
255

> <PUBCHEM_BONDANNOTATIONS>
22  1  6
48  10  6
53  11  6
57  11  6
63  13  5
66  14  5
68  14  5
71  16  6
73  17  6
75  17  6
78  19  6
23  2  6
79  20  6
21  32  6
24  83  5
28  37  6
25  3  6
26  4  6
46  51  6
34  5  5
52  56  5
55  58  8
55  59  8
58  61  8
59  62  8
40  6  6
44  6  5
61  65  8
62  65  8
64  67  5
72  74  5
80  81  5

$$$$
