102165348
  -OEChem-09022013542D

132139  0     1  0  0  0  0  0999 V2000
   15.1959    3.1468    0.0000 O   0  0  0  0  0  0  0  0  0  0  0  0
   14.6319    3.4753    0.0000 O   0  0  0  0  0  0  0  0  0  0  0  0
   15.4804   -0.0504    0.0000 O   0  0  0  0  0  0  0  0  0  0  0  0
   13.9746   -0.2882    0.0000 O   0  0  0  0  0  0  0  0  0  0  0  0
   17.5136    0.7153    0.0000 O   0  0  0  0  0  0  0  0  0  0  0  0
    9.4651    4.2815    0.0000 O   0  0  0  0  0  0  0  0  0  0  0  0
   12.2426   -0.2816    0.0000 O   0  0  0  0  0  0  0  0  0  0  0  0
    7.7331    4.2815    0.0000 O   0  0  0  0  0  0  0  0  0  0  0  0
   18.2148   -0.8685    0.0000 O   0  0  0  0  0  0  0  0  0  0  0  0
    7.7331    1.2815    0.0000 O   0  0  0  0  0  0  0  0  0  0  0  0
    6.0010    2.2815    0.0000 O   0  0  0  0  0  0  0  0  0  0  0  0
    5.1350    3.7815    0.0000 O   0  0  0  0  0  0  0  0  0  0  0  0
    2.5369    2.2815    0.0000 O   0  0  0  0  0  0  0  0  0  0  0  0
    2.5369    4.2815    0.0000 O   0  0  0  0  0  0  0  0  0  0  0  0
   20.2569    1.9297    0.0000 N   0  0  0  0  0  0  0  0  0  0  0  0
   14.8464    1.2084    0.0000 C   0  0  1  0  0  0  0  0  0  0  0  0
   14.8503    2.2084    0.0000 C   0  0  2  0  0  0  0  0  0  0  0  0
   13.9862    2.7118    0.0000 C   0  0  2  0  0  0  0  0  0  0  0  0
   13.1182    2.2151    0.0000 C   0  0  1  0  0  0  0  0  0  0  0  0
   15.7915    0.9000    0.0000 C   0  0  2  0  0  0  0  0  0  0  0  0
   13.9785    0.7118    0.0000 C   0  0  1  0  0  0  0  0  0  0  0  0
   15.7977    2.5095    0.0000 C   0  0  0  0  0  0  0  0  0  0  0  0
   12.2102    2.7254    0.0000 C   0  0  2  0  0  0  0  0  0  0  0  0
   13.1144    1.2151    0.0000 C   0  0  0  0  0  0  0  0  0  0  0  0
   16.3782    1.7025    0.0000 C   0  0  0  0  0  0  0  0  0  0  0  0
   14.0063    3.7532    0.0000 C   0  0  0  0  0  0  0  0  0  0  0  0
   14.8426    0.2084    0.0000 C   0  0  0  0  0  0  0  0  0  0  0  0
   12.2062    3.7671    0.0000 C   0  0  0  0  0  0  0  0  0  0  0  0
   16.5992    0.3105    0.0000 C   0  0  2  0  0  0  0  0  0  0  0  0
   11.2812    2.1649    0.0000 C   0  0  0  0  0  0  0  0  0  0  0  0
   13.1103    4.2844    0.0000 C   0  0  0  0  0  0  0  0  0  0  0  0
   12.2140    1.7254    0.0000 C   0  0  0  0  0  0  0  0  0  0  0  0
   11.2729    4.3204    0.0000 C   0  0  0  0  0  0  0  0  0  0  0  0
   10.3353    2.6965    0.0000 C   0  0  0  0  0  0  0  0  0  0  0  0
   10.3312    3.7815    0.0000 C   0  0  2  0  0  0  0  0  0  0  0  0
   16.4926   -0.6838    0.0000 C   0  0  0  0  0  0  0  0  0  0  0  0
   13.1067   -0.7849    0.0000 C   0  0  0  0  0  0  0  0  0  0  0  0
   18.3214    0.1258    0.0000 C   0  0  0  0  0  0  0  0  0  0  0  0
    8.5991    3.7815    0.0000 C   0  0  2  0  0  0  0  0  0  0  0  0
   13.1028   -1.7849    0.0000 C   0  0  0  0  0  0  0  0  0  0  0  0
    8.5991    2.7815    0.0000 C   0  0  0  0  0  0  0  0  0  0  0  0
   19.2358    0.5306    0.0000 C   0  0  0  0  0  0  0  0  0  0  0  0
    7.7331    2.2815    0.0000 C   0  0  1  0  0  0  0  0  0  0  0  0
   12.2349   -2.2815    0.0000 C   0  0  0  0  0  0  0  0  0  0  0  0
    6.8671    3.7815    0.0000 C   0  0  1  0  0  0  0  0  0  0  0  0
    6.8671    2.7815    0.0000 C   0  0  1  0  0  0  0  0  0  0  0  0
   20.0436   -0.0589    0.0000 C   0  0  0  0  0  0  0  0  0  0  0  0
   19.3424    1.5249    0.0000 C   0  0  0  0  0  0  0  0  0  0  0  0
    6.0010    4.2815    0.0000 C   0  0  0  0  0  0  0  0  0  0  0  0
   12.2310   -3.2815    0.0000 C   0  0  0  0  0  0  0  0  0  0  0  0
   20.9580    0.3459    0.0000 C   0  0  0  0  0  0  0  0  0  0  0  0
    5.1350    2.7815    0.0000 C   0  0  2  0  0  0  0  0  0  0  0  0
   21.0646    1.3402    0.0000 C   0  0  0  0  0  0  0  0  0  0  0  0
    8.5991    0.7815    0.0000 C   0  0  0  0  0  0  0  0  0  0  0  0
   11.3631   -3.7782    0.0000 C   0  0  0  0  0  0  0  0  0  0  0  0
   13.0951   -3.7849    0.0000 C   0  0  0  0  0  0  0  0  0  0  0  0
    4.2690    2.2815    0.0000 C   0  0  0  0  0  0  0  0  0  0  0  0
   11.3592   -4.7782    0.0000 C   0  0  0  0  0  0  0  0  0  0  0  0
   13.0913   -4.7849    0.0000 C   0  0  0  0  0  0  0  0  0  0  0  0
    3.4030    2.7815    0.0000 C   0  0  2  0  0  0  0  0  0  0  0  0
    4.2690    4.2815    0.0000 C   0  0  1  0  0  0  0  0  0  0  0  0
    3.4030    3.7815    0.0000 C   0  0  1  0  0  0  0  0  0  0  0  0
   12.2233   -5.2815    0.0000 C   0  0  0  0  0  0  0  0  0  0  0  0
    4.2690    5.2815    0.0000 C   0  0  0  0  0  0  0  0  0  0  0  0
    2.5369    1.2815    0.0000 C   0  0  0  0  0  0  0  0  0  0  0  0
   13.8527    1.7873    0.0000 H   0  0  0  0  0  0  0  0  0  0  0  0
   13.4403    0.4038    0.0000 H   0  0  0  0  0  0  0  0  0  0  0  0
   16.3362    2.8166    0.0000 H   0  0  0  0  0  0  0  0  0  0  0  0
   15.5488    3.0774    0.0000 H   0  0  0  0  0  0  0  0  0  0  0  0
   12.5042    1.3251    0.0000 H   0  0  0  0  0  0  0  0  0  0  0  0
   12.9001    0.6333    0.0000 H   0  0  0  0  0  0  0  0  0  0  0  0
   16.8374    1.2860    0.0000 H   0  0  0  0  0  0  0  0  0  0  0  0
   16.8406    2.1155    0.0000 H   0  0  0  0  0  0  0  0  0  0  0  0
   14.6150    3.6353    0.0000 H   0  0  0  0  0  0  0  0  0  0  0  0
   14.2265    4.3327    0.0000 H   0  0  0  0  0  0  0  0  0  0  0  0
   14.2226    0.2108    0.0000 H   0  0  0  0  0  0  0  0  0  0  0  0
   14.8402   -0.4116    0.0000 H   0  0  0  0  0  0  0  0  0  0  0  0
   15.4626    0.2060    0.0000 H   0  0  0  0  0  0  0  0  0  0  0  0
   16.6653    0.9270    0.0000 H   0  0  0  0  0  0  0  0  0  0  0  0
   10.8894    1.6844    0.0000 H   0  0  0  0  0  0  0  0  0  0  0  0
   11.6876    1.6967    0.0000 H   0  0  0  0  0  0  0  0  0  0  0  0
   13.1150    4.9044    0.0000 H   0  0  0  0  0  0  0  0  0  0  0  0
   15.8069    3.2521    0.0000 H   0  0  0  0  0  0  0  0  0  0  0  0
   11.5941    1.7231    0.0000 H   0  0  0  0  0  0  0  0  0  0  0  0
   12.2164    1.1054    0.0000 H   0  0  0  0  0  0  0  0  0  0  0  0
   12.8340    1.7278    0.0000 H   0  0  0  0  0  0  0  0  0  0  0  0
   14.7419    4.0855    0.0000 H   0  0  0  0  0  0  0  0  0  0  0  0
   11.6757    4.7917    0.0000 H   0  0  0  0  0  0  0  0  0  0  0  0
   10.8774    4.7979    0.0000 H   0  0  0  0  0  0  0  0  0  0  0  0
   15.8943   -0.5120    0.0000 H   0  0  0  0  0  0  0  0  0  0  0  0
    9.7241    2.8003    0.0000 H   0  0  0  0  0  0  0  0  0  0  0  0
   10.1285    2.1120    0.0000 H   0  0  0  0  0  0  0  0  0  0  0  0
    9.7948    3.4705    0.0000 H   0  0  0  0  0  0  0  0  0  0  0  0
   15.8761   -0.6176    0.0000 H   0  0  0  0  0  0  0  0  0  0  0  0
   16.4265   -1.3002    0.0000 H   0  0  0  0  0  0  0  0  0  0  0  0
   17.1090   -0.7499    0.0000 H   0  0  0  0  0  0  0  0  0  0  0  0
    9.1360    3.4715    0.0000 H   0  0  0  0  0  0  0  0  0  0  0  0
   13.6386   -2.0970    0.0000 H   0  0  0  0  0  0  0  0  0  0  0  0
    8.8112    2.1989    0.0000 H   0  0  0  0  0  0  0  0  0  0  0  0
    9.2097    2.8892    0.0000 H   0  0  0  0  0  0  0  0  0  0  0  0
    8.2700    1.9715    0.0000 H   0  0  0  0  0  0  0  0  0  0  0  0
   11.6991   -1.9695    0.0000 H   0  0  0  0  0  0  0  0  0  0  0  0
    6.8671    4.4015    0.0000 H   0  0  0  0  0  0  0  0  0  0  0  0
    6.3301    3.0915    0.0000 H   0  0  0  0  0  0  0  0  0  0  0  0
   19.9775   -0.6753    0.0000 H   0  0  0  0  0  0  0  0  0  0  0  0
   18.8416    1.8904    0.0000 H   0  0  0  0  0  0  0  0  0  0  0  0
    6.3110    4.8184    0.0000 H   0  0  0  0  0  0  0  0  0  0  0  0
    5.4641    4.5915    0.0000 H   0  0  0  0  0  0  0  0  0  0  0  0
    5.6910    3.7446    0.0000 H   0  0  0  0  0  0  0  0  0  0  0  0
   21.4588   -0.0196    0.0000 H   0  0  0  0  0  0  0  0  0  0  0  0
    5.1350    2.1615    0.0000 H   0  0  0  0  0  0  0  0  0  0  0  0
   21.6316    1.5912    0.0000 H   0  0  0  0  0  0  0  0  0  0  0  0
    8.2891    0.2446    0.0000 H   0  0  0  0  0  0  0  0  0  0  0  0
    9.1360    0.4715    0.0000 H   0  0  0  0  0  0  0  0  0  0  0  0
    8.9091    1.3184    0.0000 H   0  0  0  0  0  0  0  0  0  0  0  0
   10.8273   -3.4661    0.0000 H   0  0  0  0  0  0  0  0  0  0  0  0
   13.6332   -3.4769    0.0000 H   0  0  0  0  0  0  0  0  0  0  0  0
    3.8705    1.8066    0.0000 H   0  0  0  0  0  0  0  0  0  0  0  0
    4.6675    1.8066    0.0000 H   0  0  0  0  0  0  0  0  0  0  0  0
   10.8211   -5.0861    0.0000 H   0  0  0  0  0  0  0  0  0  0  0  0
   13.6270   -5.0969    0.0000 H   0  0  0  0  0  0  0  0  0  0  0  0
    3.4030    2.1615    0.0000 H   0  0  0  0  0  0  0  0  0  0  0  0
    4.8059    4.5915    0.0000 H   0  0  0  0  0  0  0  0  0  0  0  0
    2.8660    3.4715    0.0000 H   0  0  0  0  0  0  0  0  0  0  0  0
   12.2209   -5.9015    0.0000 H   0  0  0  0  0  0  0  0  0  0  0  0
    4.8890    5.2815    0.0000 H   0  0  0  0  0  0  0  0  0  0  0  0
    4.2690    5.9015    0.0000 H   0  0  0  0  0  0  0  0  0  0  0  0
    3.6490    5.2815    0.0000 H   0  0  0  0  0  0  0  0  0  0  0  0
    2.0000    3.9715    0.0000 H   0  0  0  0  0  0  0  0  0  0  0  0
    1.9169    1.2815    0.0000 H   0  0  0  0  0  0  0  0  0  0  0  0
    2.5369    0.6615    0.0000 H   0  0  0  0  0  0  0  0  0  0  0  0
    3.1569    1.2815    0.0000 H   0  0  0  0  0  0  0  0  0  0  0  0
 17  1  1  6  0  0  0
  1 83  1  0  0  0  0
 18  2  1  6  0  0  0
  2 87  1  0  0  0  0
 20  3  1  6  0  0  0
  3 90  1  0  0  0  0
 21  4  1  6  0  0  0
  4 37  1  0  0  0  0
 29  5  1  1  0  0  0
  5 38  1  0  0  0  0
 35  6  1  6  0  0  0
 39  6  1  1  0  0  0
  7 37  2  0  0  0  0
  8 39  1  0  0  0  0
  8 45  1  0  0  0  0
  9 38  2  0  0  0  0
 43 10  1  6  0  0  0
 10 54  1  0  0  0  0
 46 11  1  6  0  0  0
 52 11  1  1  0  0  0
 12 52  1  0  0  0  0
 12 61  1  0  0  0  0
 60 13  1  1  0  0  0
 13 65  1  0  0  0  0
 62 14  1  6  0  0  0
 14129  1  0  0  0  0
 15 48  1  0  0  0  0
 15 53  2  0  0  0  0
 16 17  1  0  0  0  0
 16 20  1  0  0  0  0
 16 21  1  0  0  0  0
 16 27  1  6  0  0  0
 17 18  1  0  0  0  0
 17 22  1  0  0  0  0
 18 19  1  0  0  0  0
 18 26  1  0  0  0  0
 19 23  1  0  0  0  0
 19 24  1  0  0  0  0
 19 66  1  1  0  0  0
 20 25  1  0  0  0  0
 20 29  1  0  0  0  0
 21 24  1  0  0  0  0
 21 67  1  0  0  0  0
 22 25  1  0  0  0  0
 22 68  1  0  0  0  0
 22 69  1  0  0  0  0
 23 28  1  0  0  0  0
 23 30  1  0  0  0  0
 23 32  1  6  0  0  0
 24 70  1  0  0  0  0
 24 71  1  0  0  0  0
 25 72  1  0  0  0  0
 25 73  1  0  0  0  0
 26 31  1  0  0  0  0
 26 74  1  0  0  0  0
 26 75  1  0  0  0  0
 27 76  1  0  0  0  0
 27 77  1  0  0  0  0
 27 78  1  0  0  0  0
 28 31  2  0  0  0  0
 28 33  1  0  0  0  0
 29 36  1  0  0  0  0
 29 79  1  0  0  0  0
 30 34  1  0  0  0  0
 30 80  1  0  0  0  0
 30 81  1  0  0  0  0
 31 82  1  0  0  0  0
 32 84  1  0  0  0  0
 32 85  1  0  0  0  0
 32 86  1  0  0  0  0
 33 35  1  0  0  0  0
 33 88  1  0  0  0  0
 33 89  1  0  0  0  0
 34 35  1  0  0  0  0
 34 91  1  0  0  0  0
 34 92  1  0  0  0  0
 35 93  1  0  0  0  0
 36 94  1  0  0  0  0
 36 95  1  0  0  0  0
 36 96  1  0  0  0  0
 37 40  1  0  0  0  0
 38 42  1  0  0  0  0
 39 41  1  0  0  0  0
 39 97  1  0  0  0  0
 40 44  2  0  0  0  0
 40 98  1  0  0  0  0
 41 43  1  0  0  0  0
 41 99  1  0  0  0  0
 41100  1  0  0  0  0
 42 47  1  0  0  0  0
 42 48  2  0  0  0  0
 43 46  1  0  0  0  0
 43101  1  0  0  0  0
 44 50  1  0  0  0  0
 44102  1  0  0  0  0
 45 46  1  0  0  0  0
 45 49  1  1  0  0  0
 45103  1  0  0  0  0
 46104  1  0  0  0  0
 47 51  2  0  0  0  0
 47105  1  0  0  0  0
 48106  1  0  0  0  0
 49107  1  0  0  0  0
 49108  1  0  0  0  0
 49109  1  0  0  0  0
 50 55  2  0  0  0  0
 50 56  1  0  0  0  0
 51 53  1  0  0  0  0
 51110  1  0  0  0  0
 52 57  1  0  0  0  0
 52111  1  0  0  0  0
 53112  1  0  0  0  0
 54113  1  0  0  0  0
 54114  1  0  0  0  0
 54115  1  0  0  0  0
 55 58  1  0  0  0  0
 55116  1  0  0  0  0
 56 59  2  0  0  0  0
 56117  1  0  0  0  0
 57 60  1  0  0  0  0
 57118  1  0  0  0  0
 57119  1  0  0  0  0
 58 63  2  0  0  0  0
 58120  1  0  0  0  0
 59 63  1  0  0  0  0
 59121  1  0  0  0  0
 60 62  1  0  0  0  0
 60122  1  0  0  0  0
 61 62  1  0  0  0  0
 61 64  1  1  0  0  0
 61123  1  0  0  0  0
 62124  1  0  0  0  0
 63125  1  0  0  0  0
 64126  1  0  0  0  0
 64127  1  0  0  0  0
 64128  1  0  0  0  0
 65130  1  0  0  0  0
 65131  1  0  0  0  0
 65132  1  0  0  0  0
M  END
> <PUBCHEM_COMPOUND_CID>
102165348

> <PUBCHEM_COMPOUND_CANONICALIZED>
1

> <PUBCHEM_CACTVS_COMPLEXITY>
1760

> <PUBCHEM_CACTVS_HBOND_ACCEPTOR>
15

> <PUBCHEM_CACTVS_HBOND_DONOR>
4

> <PUBCHEM_CACTVS_ROTATABLE_BOND>
14

> <PUBCHEM_CACTVS_SUBSKEYS>
AAADcfB+PAAAAAAAAAAAAAAAAAAAAYAAAAA8aNECAAAAAGCBwAAAHgAACAAAD1Txmgc+iJIIFgCoAjD3TACCgCA1AiAI2CE4bNgZNvrAtZmmcYhnwAHP6cfY8f4PgAAAAAAAAADCAAYQADCAAYQADAAAAA==

> <PUBCHEM_IUPAC_OPENEYE_NAME>
[(1S)-1-[(3S,8S,9R,10R,12R,13R,14R,17S)-8,14,17-trihydroxy-3-[(2R,4S,5R,6R)-5-[(2S,4R,5R,6R)-5-hydroxy-4-methoxy-6-methyl-tetrahydropyran-2-yl]oxy-4-methoxy-6-methyl-tetrahydropyran-2-yl]oxy-10,13-dimethyl-12-[(E)-3-phenylprop-2-enoyl]oxy-1,2,3,4,7,9,11,12,15,16-decahydrocyclopenta[a]phenanthren-17-yl]ethyl] pyridine-3-carboxylate

> <PUBCHEM_IUPAC_CAS_NAME>
3-pyridinecarboxylic acid [(1S)-1-[(3S,8S,9R,10R,12R,13R,14R,17S)-8,14,17-trihydroxy-3-[[(2R,4S,5R,6R)-5-[[(2S,4R,5R,6R)-5-hydroxy-4-methoxy-6-methyl-2-oxanyl]oxy]-4-methoxy-6-methyl-2-oxanyl]oxy]-10,13-dimethyl-12-[(E)-1-oxo-3-phenylprop-2-enoxy]-1,2,3,4,7,9,11,12,15,16-decahydrocyclopenta[a]phenanthren-17-yl]ethyl] ester

> <PUBCHEM_IUPAC_NAME_MARKUP>
[(1<I>S</I>)-1-[(3<I>S</I>,8<I>S</I>,9<I>R</I>,10<I>R</I>,12<I>R</I>,13<I>R</I>,14<I>R</I>,17<I>S</I>)-8,14,17-trihydroxy-3-[(2<I>R</I>,4<I>S</I>,5<I>R</I>,6<I>R</I>)-5-[(2<I>S</I>,4<I>R</I>,5<I>R</I>,6<I>R</I>)-5-hydroxy-4-methoxy-6-methyloxan-2-yl]oxy-4-methoxy-6-methyloxan-2-yl]oxy-10,13-dimethyl-12-[(<I>E</I>)-3-phenylprop-2-enoyl]oxy-1,2,3,4,7,9,11,12,15,16-decahydrocyclopenta[a]phenanthren-17-yl]ethyl] pyridine-3-carboxylate

> <PUBCHEM_IUPAC_NAME>
[(1S)-1-[(3S,8S,9R,10R,12R,13R,14R,17S)-8,14,17-trihydroxy-3-[(2R,4S,5R,6R)-5-[(2S,4R,5R,6R)-5-hydroxy-4-methoxy-6-methyloxan-2-yl]oxy-4-methoxy-6-methyloxan-2-yl]oxy-10,13-dimethyl-12-[(E)-3-phenylprop-2-enoyl]oxy-1,2,3,4,7,9,11,12,15,16-decahydrocyclopenta[a]phenanthren-17-yl]ethyl] pyridine-3-carboxylate

> <PUBCHEM_IUPAC_SYSTEMATIC_NAME>
[(1S)-1-[(3S,8S,9R,10R,12R,13R,14R,17S)-3-[(2R,4S,5R,6R)-4-methoxy-5-[(2S,4R,5R,6R)-4-methoxy-6-methyl-5-oxidanyl-oxan-2-yl]oxy-6-methyl-oxan-2-yl]oxy-10,13-dimethyl-8,14,17-tris(oxidanyl)-12-[(E)-3-phenylprop-2-enoyl]oxy-1,2,3,4,7,9,11,12,15,16-decahydrocyclopenta[a]phenanthren-17-yl]ethyl] pyridine-3-carboxylate

> <PUBCHEM_IUPAC_TRADITIONAL_NAME>
nicotinic acid [(1S)-1-[(3S,8S,9R,10R,12R,13R,14R,17S)-8,14,17-trihydroxy-3-[(2R,4S,5R,6R)-5-[(2S,4R,5R,6R)-5-hydroxy-4-methoxy-6-methyl-tetrahydropyran-2-yl]oxy-4-methoxy-6-methyl-tetrahydropyran-2-yl]oxy-10,13-dimethyl-12-[(E)-3-phenylacryloyl]oxy-1,2,3,4,7,9,11,12,15,16-decahydrocyclopenta[a]phenanthren-17-yl]ethyl] ester

> <PUBCHEM_IUPAC_INCHI>
InChI=1S/C50H67NO14/c1-29-43(53)36(58-6)25-42(60-29)65-44-30(2)61-41(26-37(44)59-7)63-35-18-19-46(4)34(24-35)17-20-49(56)38(46)27-39(64-40(52)16-15-32-12-9-8-10-13-32)47(5)48(55,21-22-50(47,49)57)31(3)62-45(54)33-14-11-23-51-28-33/h8-17,23,28-31,35-39,41-44,53,55-57H,18-22,24-27H2,1-7H3/b16-15+/t29-,30-,31+,35+,36-,37+,38-,39-,41+,42+,43-,44-,46+,47-,48-,49+,50-/m1/s1

> <PUBCHEM_IUPAC_INCHIKEY>
FLOMIRTZSBSGEW-NBXFTRSQSA-N

> <PUBCHEM_XLOGP3_AA>
4.3

> <PUBCHEM_EXACT_MASS>
905.456156

> <PUBCHEM_MOLECULAR_FORMULA>
C50H67NO14

> <PUBCHEM_MOLECULAR_WEIGHT>
906.1

> <PUBCHEM_OPENEYE_CAN_SMILES>
CC1C(C(CC(O1)OC2C(OC(CC2OC)OC3CCC4(C5CC(C6(C(CCC6(C5(CC=C4C3)O)O)(C(C)OC(=O)C7=CN=CC=C7)O)C)OC(=O)C=CC8=CC=CC=C8)C)C)OC)O

> <PUBCHEM_OPENEYE_ISO_SMILES>
C[C@@H]1[C@H]([C@@H](C[C@@H](O1)O[C@@H]2[C@H](O[C@H](C[C@@H]2OC)O[C@H]3CC[C@@]4([C@H]5C[C@H]([C@@]6([C@@](CC[C@@]6([C@@]5(CC=C4C3)O)O)([C@H](C)OC(=O)C7=CN=CC=C7)O)C)OC(=O)/C=C/C8=CC=CC=C8)C)C)OC)O

> <PUBCHEM_CACTVS_TPSA>
202

> <PUBCHEM_MONOISOTOPIC_WEIGHT>
905.456156

> <PUBCHEM_TOTAL_CHARGE>
0

> <PUBCHEM_HEAVY_ATOM_COUNT>
65

> <PUBCHEM_ATOM_DEF_STEREO_COUNT>
17

> <PUBCHEM_ATOM_UDEF_STEREO_COUNT>
0

> <PUBCHEM_BOND_DEF_STEREO_COUNT>
1

> <PUBCHEM_BOND_UDEF_STEREO_COUNT>
0

> <PUBCHEM_ISOTOPIC_ATOM_COUNT>
0

> <PUBCHEM_COMPONENT_COUNT>
1

> <PUBCHEM_CACTVS_TAUTO_COUNT>
-1

> <PUBCHEM_COORDINATE_TYPE>
1
5
255

> <PUBCHEM_BONDANNOTATIONS>
17  1  6
43  10  6
46  11  6
52  11  5
60  13  5
62  14  6
15  48  8
15  53  8
16  27  6
19  66  5
18  2  6
23  32  6
20  3  6
21  4  6
42  47  8
42  48  8
45  49  5
47  51  8
29  5  5
50  55  8
50  56  8
51  53  8
55  58  8
56  59  8
58  63  8
59  63  8
35  6  6
39  6  5
61  64  5

$$$$
