102165352
  -OEChem-09022014092D

179188  0     1  0  0  0  0  0999 V2000
   25.5882    2.8024    0.0000 O   0  0  0  0  0  0  0  0  0  0  0  0
   25.0242    3.1309    0.0000 O   0  0  0  0  0  0  0  0  0  0  0  0
   24.3669   -0.6326    0.0000 O   0  0  0  0  0  0  0  0  0  0  0  0
   25.8727   -0.3947    0.0000 O   0  0  0  0  0  0  0  0  0  0  0  0
   19.8574    3.9372    0.0000 O   0  0  0  0  0  0  0  0  0  0  0  0
   26.8849   -1.0281    0.0000 O   0  0  0  0  0  0  0  0  0  0  0  0
   22.6349   -0.6259    0.0000 O   0  0  0  0  0  0  0  0  0  0  0  0
   18.1254    3.9372    0.0000 O   0  0  0  0  0  0  0  0  0  0  0  0
   18.1254    0.9372    0.0000 O   0  0  0  0  0  0  0  0  0  0  0  0
   16.3933    1.9372    0.0000 O   0  0  0  0  0  0  0  0  0  0  0  0
   23.4836   -5.1292    0.0000 O   0  0  0  0  0  0  0  0  0  0  0  0
   14.6613    1.9372    0.0000 O   0  0  0  0  0  0  0  0  0  0  0  0
   14.6613    4.9372    0.0000 O   0  0  0  0  0  0  0  0  0  0  0  0
   12.9292    3.9372    0.0000 O   0  0  0  0  0  0  0  0  0  0  0  0
   11.1972    3.9372    0.0000 O   0  0  0  0  0  0  0  0  0  0  0  0
    9.4651    1.9372    0.0000 O   0  0  0  0  0  0  0  0  0  0  0  0
   11.1972    0.9372    0.0000 O   0  0  0  0  0  0  0  0  0  0  0  0
    8.5991    3.4372    0.0000 O   0  0  0  0  0  0  0  0  0  0  0  0
    6.0010    3.9372    0.0000 O   0  0  0  0  0  0  0  0  0  0  0  0
    6.0010    1.9372    0.0000 O   0  0  0  0  0  0  0  0  0  0  0  0
    5.1350    2.4372    0.0000 O   0  0  0  0  0  0  0  0  0  0  0  0
    2.5369    3.9372    0.0000 O   0  0  0  0  0  0  0  0  0  0  0  0
    2.5369    1.9372    0.0000 O   0  0  0  0  0  0  0  0  0  0  0  0
   25.2426    1.8640    0.0000 C   0  0  2  0  0  0  0  0  0  0  0  0
   25.2387    0.8641    0.0000 C   0  0  2  0  0  0  0  0  0  0  0  0
   24.3785    2.3674    0.0000 C   0  0  2  0  0  0  0  0  0  0  0  0
   23.5105    1.8707    0.0000 C   0  0  1  0  0  0  0  0  0  0  0  0
   24.3708    0.3674    0.0000 C   0  0  1  0  0  0  0  0  0  0  0  0
   26.1838    0.5557    0.0000 C   0  0  2  0  0  0  0  0  0  0  0  0
   22.6025    2.3811    0.0000 C   0  0  2  0  0  0  0  0  0  0  0  0
   23.5067    0.8707    0.0000 C   0  0  0  0  0  0  0  0  0  0  0  0
   26.1900    2.1651    0.0000 C   0  0  0  0  0  0  0  0  0  0  0  0
   26.7705    1.3582    0.0000 C   0  0  0  0  0  0  0  0  0  0  0  0
   24.3986    3.4088    0.0000 C   0  0  0  0  0  0  0  0  0  0  0  0
   25.2349   -0.1359    0.0000 C   0  0  0  0  0  0  0  0  0  0  0  0
   22.5985    3.4227    0.0000 C   0  0  0  0  0  0  0  0  0  0  0  0
   21.6735    1.8206    0.0000 C   0  0  0  0  0  0  0  0  0  0  0  0
   23.5026    3.9400    0.0000 C   0  0  0  0  0  0  0  0  0  0  0  0
   22.6064    1.3811    0.0000 C   0  0  0  0  0  0  0  0  0  0  0  0
   26.9915   -0.0338    0.0000 C   0  0  0  0  0  0  0  0  0  0  0  0
   21.6652    3.9760    0.0000 C   0  0  0  0  0  0  0  0  0  0  0  0
   20.7277    2.3522    0.0000 C   0  0  0  0  0  0  0  0  0  0  0  0
   20.7235    3.4372    0.0000 C   0  0  2  0  0  0  0  0  0  0  0  0
   27.9059    0.3710    0.0000 C   0  0  0  0  0  0  0  0  0  0  0  0
   23.4990   -1.1292    0.0000 C   0  0  0  0  0  0  0  0  0  0  0  0
   18.9914    3.4372    0.0000 C   0  0  2  0  0  0  0  0  0  0  0  0
   23.4951   -2.1292    0.0000 C   0  0  0  0  0  0  0  0  0  0  0  0
   18.9914    2.4372    0.0000 C   0  0  0  0  0  0  0  0  0  0  0  0
   18.1254    1.9372    0.0000 C   0  0  1  0  0  0  0  0  0  0  0  0
   24.3592   -2.6326    0.0000 C   0  0  0  0  0  0  0  0  0  0  0  0
   22.6272   -2.6259    0.0000 C   0  0  0  0  0  0  0  0  0  0  0  0
   17.2594    3.4372    0.0000 C   0  0  1  0  0  0  0  0  0  0  0  0
   17.2594    2.4372    0.0000 C   0  0  1  0  0  0  0  0  0  0  0  0
   24.3554   -3.6326    0.0000 C   0  0  0  0  0  0  0  0  0  0  0  0
   22.6233   -3.6259    0.0000 C   0  0  0  0  0  0  0  0  0  0  0  0
   16.3933    3.9372    0.0000 C   0  0  0  0  0  0  0  0  0  0  0  0
   23.4874   -4.1292    0.0000 C   0  0  0  0  0  0  0  0  0  0  0  0
   15.5273    2.4372    0.0000 C   0  0  2  0  0  0  0  0  0  0  0  0
   15.5273    3.4372    0.0000 C   0  0  0  0  0  0  0  0  0  0  0  0
   14.6613    3.9372    0.0000 C   0  0  2  0  0  0  0  0  0  0  0  0
   13.7953    2.4372    0.0000 C   0  0  1  0  0  0  0  0  0  0  0  0
   13.7953    3.4372    0.0000 C   0  0  1  0  0  0  0  0  0  0  0  0
   12.9292    1.9372    0.0000 C   0  0  0  0  0  0  0  0  0  0  0  0
   12.0632    3.4372    0.0000 C   0  0  2  0  0  0  0  0  0  0  0  0
   15.5273    5.4372    0.0000 C   0  0  0  0  0  0  0  0  0  0  0  0
   12.0632    2.4372    0.0000 C   0  0  0  0  0  0  0  0  0  0  0  0
   11.1972    1.9372    0.0000 C   0  0  2  0  0  0  0  0  0  0  0  0
   10.3312    2.4372    0.0000 C   0  0  2  0  0  0  0  0  0  0  0  0
   10.3312    3.4372    0.0000 C   0  0  2  0  0  0  0  0  0  0  0  0
    9.4651    3.9372    0.0000 C   0  0  0  0  0  0  0  0  0  0  0  0
    8.5991    2.4372    0.0000 C   0  0  2  0  0  0  0  0  0  0  0  0
    7.7331    1.9372    0.0000 C   0  0  0  0  0  0  0  0  0  0  0  0
    6.8671    2.4372    0.0000 C   0  0  1  0  0  0  0  0  0  0  0  0
    6.8671    3.4372    0.0000 C   0  0  1  0  0  0  0  0  0  0  0  0
    7.7331    3.9372    0.0000 C   0  0  1  0  0  0  0  0  0  0  0  0
   12.0632    0.4372    0.0000 C   0  0  0  0  0  0  0  0  0  0  0  0
    5.1350    3.4372    0.0000 C   0  0  2  0  0  0  0  0  0  0  0  0
    7.7331    4.9372    0.0000 C   0  0  0  0  0  0  0  0  0  0  0  0
    4.2690    3.9372    0.0000 C   0  0  0  0  0  0  0  0  0  0  0  0
    3.4030    3.4372    0.0000 C   0  0  2  0  0  0  0  0  0  0  0  0
    3.4030    2.4372    0.0000 C   0  0  2  0  0  0  0  0  0  0  0  0
    4.2690    1.9372    0.0000 C   0  0  2  0  0  0  0  0  0  0  0  0
    6.0010    0.9372    0.0000 C   0  0  0  0  0  0  0  0  0  0  0  0
    4.2690    0.9372    0.0000 C   0  0  0  0  0  0  0  0  0  0  0  0
    2.5369    4.9372    0.0000 C   0  0  0  0  0  0  0  0  0  0  0  0
   24.2450    1.4429    0.0000 H   0  0  0  0  0  0  0  0  0  0  0  0
   23.8327    0.0595    0.0000 H   0  0  0  0  0  0  0  0  0  0  0  0
   22.8965    0.9807    0.0000 H   0  0  0  0  0  0  0  0  0  0  0  0
   23.2924    0.2889    0.0000 H   0  0  0  0  0  0  0  0  0  0  0  0
   26.7285    2.4723    0.0000 H   0  0  0  0  0  0  0  0  0  0  0  0
   25.9411    2.7330    0.0000 H   0  0  0  0  0  0  0  0  0  0  0  0
   27.2297    0.9417    0.0000 H   0  0  0  0  0  0  0  0  0  0  0  0
   27.2329    1.7711    0.0000 H   0  0  0  0  0  0  0  0  0  0  0  0
   25.0073    3.2910    0.0000 H   0  0  0  0  0  0  0  0  0  0  0  0
   24.6188    3.9884    0.0000 H   0  0  0  0  0  0  0  0  0  0  0  0
   24.6149   -0.1335    0.0000 H   0  0  0  0  0  0  0  0  0  0  0  0
   25.2325   -0.7559    0.0000 H   0  0  0  0  0  0  0  0  0  0  0  0
   25.8549   -0.1383    0.0000 H   0  0  0  0  0  0  0  0  0  0  0  0
   21.2817    1.3400    0.0000 H   0  0  0  0  0  0  0  0  0  0  0  0
   22.0799    1.3523    0.0000 H   0  0  0  0  0  0  0  0  0  0  0  0
   23.5073    4.5600    0.0000 H   0  0  0  0  0  0  0  0  0  0  0  0
   26.1992    2.9077    0.0000 H   0  0  0  0  0  0  0  0  0  0  0  0
   21.9864    1.3787    0.0000 H   0  0  0  0  0  0  0  0  0  0  0  0
   22.6087    0.7611    0.0000 H   0  0  0  0  0  0  0  0  0  0  0  0
   23.2263    1.3835    0.0000 H   0  0  0  0  0  0  0  0  0  0  0  0
   25.1342    3.7411    0.0000 H   0  0  0  0  0  0  0  0  0  0  0  0
   22.0680    4.4474    0.0000 H   0  0  0  0  0  0  0  0  0  0  0  0
   21.2697    4.4535    0.0000 H   0  0  0  0  0  0  0  0  0  0  0  0
   20.1164    2.4559    0.0000 H   0  0  0  0  0  0  0  0  0  0  0  0
   20.5208    1.7677    0.0000 H   0  0  0  0  0  0  0  0  0  0  0  0
   20.1871    3.1261    0.0000 H   0  0  0  0  0  0  0  0  0  0  0  0
   26.2866   -0.8564    0.0000 H   0  0  0  0  0  0  0  0  0  0  0  0
   28.1569   -0.1960    0.0000 H   0  0  0  0  0  0  0  0  0  0  0  0
   28.4729    0.6219    0.0000 H   0  0  0  0  0  0  0  0  0  0  0  0
   27.6550    0.9379    0.0000 H   0  0  0  0  0  0  0  0  0  0  0  0
   18.9914    4.0572    0.0000 H   0  0  0  0  0  0  0  0  0  0  0  0
   19.2035    1.8545    0.0000 H   0  0  0  0  0  0  0  0  0  0  0  0
   19.6020    2.5448    0.0000 H   0  0  0  0  0  0  0  0  0  0  0  0
   18.6623    1.6272    0.0000 H   0  0  0  0  0  0  0  0  0  0  0  0
   24.8973   -2.3246    0.0000 H   0  0  0  0  0  0  0  0  0  0  0  0
   22.0914   -2.3138    0.0000 H   0  0  0  0  0  0  0  0  0  0  0  0
   17.2594    4.0572    0.0000 H   0  0  0  0  0  0  0  0  0  0  0  0
   16.7224    2.7472    0.0000 H   0  0  0  0  0  0  0  0  0  0  0  0
   24.8911   -3.9446    0.0000 H   0  0  0  0  0  0  0  0  0  0  0  0
   22.0852   -3.9338    0.0000 H   0  0  0  0  0  0  0  0  0  0  0  0
   16.7033    4.4741    0.0000 H   0  0  0  0  0  0  0  0  0  0  0  0
   15.8564    4.2472    0.0000 H   0  0  0  0  0  0  0  0  0  0  0  0
   16.0833    3.4002    0.0000 H   0  0  0  0  0  0  0  0  0  0  0  0
   18.6623    0.6272    0.0000 H   0  0  0  0  0  0  0  0  0  0  0  0
   15.5273    1.8172    0.0000 H   0  0  0  0  0  0  0  0  0  0  0  0
   22.9454   -5.4372    0.0000 H   0  0  0  0  0  0  0  0  0  0  0  0
   16.1379    3.3295    0.0000 H   0  0  0  0  0  0  0  0  0  0  0  0
   15.7394    4.0198    0.0000 H   0  0  0  0  0  0  0  0  0  0  0  0
   15.1982    4.2472    0.0000 H   0  0  0  0  0  0  0  0  0  0  0  0
   13.7953    1.8172    0.0000 H   0  0  0  0  0  0  0  0  0  0  0  0
   13.7953    4.0572    0.0000 H   0  0  0  0  0  0  0  0  0  0  0  0
   12.6192    2.4741    0.0000 H   0  0  0  0  0  0  0  0  0  0  0  0
   12.3923    1.6272    0.0000 H   0  0  0  0  0  0  0  0  0  0  0  0
   13.2392    1.4002    0.0000 H   0  0  0  0  0  0  0  0  0  0  0  0
   12.6002    3.1272    0.0000 H   0  0  0  0  0  0  0  0  0  0  0  0
   15.8373    4.9002    0.0000 H   0  0  0  0  0  0  0  0  0  0  0  0
   16.0643    5.7472    0.0000 H   0  0  0  0  0  0  0  0  0  0  0  0
   15.2173    5.9741    0.0000 H   0  0  0  0  0  0  0  0  0  0  0  0
   12.2753    1.8545    0.0000 H   0  0  0  0  0  0  0  0  0  0  0  0
   12.6738    2.5448    0.0000 H   0  0  0  0  0  0  0  0  0  0  0  0
   11.7341    1.6272    0.0000 H   0  0  0  0  0  0  0  0  0  0  0  0
    9.7942    2.7472    0.0000 H   0  0  0  0  0  0  0  0  0  0  0  0
   10.3312    4.0572    0.0000 H   0  0  0  0  0  0  0  0  0  0  0  0
    9.7751    4.4741    0.0000 H   0  0  0  0  0  0  0  0  0  0  0  0
    8.9282    4.2472    0.0000 H   0  0  0  0  0  0  0  0  0  0  0  0
    9.1551    3.4002    0.0000 H   0  0  0  0  0  0  0  0  0  0  0  0
    8.5991    1.8172    0.0000 H   0  0  0  0  0  0  0  0  0  0  0  0
    7.3346    1.4622    0.0000 H   0  0  0  0  0  0  0  0  0  0  0  0
    8.1316    1.4622    0.0000 H   0  0  0  0  0  0  0  0  0  0  0  0
    6.3301    2.7472    0.0000 H   0  0  0  0  0  0  0  0  0  0  0  0
    6.8671    4.0572    0.0000 H   0  0  0  0  0  0  0  0  0  0  0  0
    8.2700    4.2472    0.0000 H   0  0  0  0  0  0  0  0  0  0  0  0
   11.7532   -0.0998    0.0000 H   0  0  0  0  0  0  0  0  0  0  0  0
   12.6002    0.1272    0.0000 H   0  0  0  0  0  0  0  0  0  0  0  0
   12.3732    0.9741    0.0000 H   0  0  0  0  0  0  0  0  0  0  0  0
    5.1350    4.0572    0.0000 H   0  0  0  0  0  0  0  0  0  0  0  0
    8.3531    4.9372    0.0000 H   0  0  0  0  0  0  0  0  0  0  0  0
    7.7331    5.5572    0.0000 H   0  0  0  0  0  0  0  0  0  0  0  0
    7.1131    4.9372    0.0000 H   0  0  0  0  0  0  0  0  0  0  0  0
    4.6675    4.4121    0.0000 H   0  0  0  0  0  0  0  0  0  0  0  0
    3.8705    4.4121    0.0000 H   0  0  0  0  0  0  0  0  0  0  0  0
    3.4030    4.0572    0.0000 H   0  0  0  0  0  0  0  0  0  0  0  0
    2.8660    2.7472    0.0000 H   0  0  0  0  0  0  0  0  0  0  0  0
    4.8059    1.6272    0.0000 H   0  0  0  0  0  0  0  0  0  0  0  0
    5.3810    0.9372    0.0000 H   0  0  0  0  0  0  0  0  0  0  0  0
    6.0010    0.3172    0.0000 H   0  0  0  0  0  0  0  0  0  0  0  0
    6.6210    0.9372    0.0000 H   0  0  0  0  0  0  0  0  0  0  0  0
    3.6490    0.9372    0.0000 H   0  0  0  0  0  0  0  0  0  0  0  0
    4.2690    0.3172    0.0000 H   0  0  0  0  0  0  0  0  0  0  0  0
    4.8890    0.9372    0.0000 H   0  0  0  0  0  0  0  0  0  0  0  0
    2.0000    2.2472    0.0000 H   0  0  0  0  0  0  0  0  0  0  0  0
    3.1569    4.9372    0.0000 H   0  0  0  0  0  0  0  0  0  0  0  0
    2.5369    5.5572    0.0000 H   0  0  0  0  0  0  0  0  0  0  0  0
    1.9169    4.9372    0.0000 H   0  0  0  0  0  0  0  0  0  0  0  0
 24  1  1  6  0  0  0
  1102  1  0  0  0  0
 26  2  1  6  0  0  0
  2106  1  0  0  0  0
 28  3  1  6  0  0  0
  3 45  1  0  0  0  0
 29  4  1  6  0  0  0
  4112  1  0  0  0  0
 43  5  1  6  0  0  0
 46  5  1  1  0  0  0
  6 40  2  0  0  0  0
  7 45  2  0  0  0  0
  8 46  1  0  0  0  0
  8 52  1  0  0  0  0
 49  9  1  6  0  0  0
  9129  1  0  0  0  0
 53 10  1  6  0  0  0
 58 10  1  6  0  0  0
 11 57  1  0  0  0  0
 11131  1  0  0  0  0
 12 58  1  0  0  0  0
 12 61  1  0  0  0  0
 60 13  1  6  0  0  0
 13 65  1  0  0  0  0
 62 14  1  1  0  0  0
 64 14  1  1  0  0  0
 15 64  1  0  0  0  0
 15 69  1  0  0  0  0
 68 16  1  1  0  0  0
 71 16  1  1  0  0  0
 67 17  1  1  0  0  0
 17 76  1  0  0  0  0
 18 71  1  0  0  0  0
 18 75  1  0  0  0  0
 74 19  1  6  0  0  0
 77 19  1  6  0  0  0
 73 20  1  6  0  0  0
 20 83  1  0  0  0  0
 21 77  1  0  0  0  0
 21 82  1  0  0  0  0
 80 22  1  6  0  0  0
 22 85  1  0  0  0  0
 81 23  1  6  0  0  0
 23176  1  0  0  0  0
 24 25  1  0  0  0  0
 24 26  1  0  0  0  0
 24 32  1  0  0  0  0
 25 28  1  0  0  0  0
 25 29  1  0  0  0  0
 25 35  1  6  0  0  0
 26 27  1  0  0  0  0
 26 34  1  0  0  0  0
 27 30  1  0  0  0  0
 27 31  1  0  0  0  0
 27 86  1  1  0  0  0
 28 31  1  0  0  0  0
 28 87  1  0  0  0  0
 29 33  1  0  0  0  0
 29 40  1  0  0  0  0
 30 36  1  0  0  0  0
 30 37  1  0  0  0  0
 30 39  1  6  0  0  0
 31 88  1  0  0  0  0
 31 89  1  0  0  0  0
 32 33  1  0  0  0  0
 32 90  1  0  0  0  0
 32 91  1  0  0  0  0
 33 92  1  0  0  0  0
 33 93  1  0  0  0  0
 34 38  1  0  0  0  0
 34 94  1  0  0  0  0
 34 95  1  0  0  0  0
 35 96  1  0  0  0  0
 35 97  1  0  0  0  0
 35 98  1  0  0  0  0
 36 38  2  0  0  0  0
 36 41  1  0  0  0  0
 37 42  1  0  0  0  0
 37 99  1  0  0  0  0
 37100  1  0  0  0  0
 38101  1  0  0  0  0
 39103  1  0  0  0  0
 39104  1  0  0  0  0
 39105  1  0  0  0  0
 40 44  1  0  0  0  0
 41 43  1  0  0  0  0
 41107  1  0  0  0  0
 41108  1  0  0  0  0
 42 43  1  0  0  0  0
 42109  1  0  0  0  0
 42110  1  0  0  0  0
 43111  1  0  0  0  0
 44113  1  0  0  0  0
 44114  1  0  0  0  0
 44115  1  0  0  0  0
 45 47  1  0  0  0  0
 46 48  1  0  0  0  0
 46116  1  0  0  0  0
 47 50  2  0  0  0  0
 47 51  1  0  0  0  0
 48 49  1  0  0  0  0
 48117  1  0  0  0  0
 48118  1  0  0  0  0
 49 53  1  0  0  0  0
 49119  1  0  0  0  0
 50 54  1  0  0  0  0
 50120  1  0  0  0  0
 51 55  2  0  0  0  0
 51121  1  0  0  0  0
 52 53  1  0  0  0  0
 52 56  1  1  0  0  0
 52122  1  0  0  0  0
 53123  1  0  0  0  0
 54 57  2  0  0  0  0
 54124  1  0  0  0  0
 55 57  1  0  0  0  0
 55125  1  0  0  0  0
 56126  1  0  0  0  0
 56127  1  0  0  0  0
 56128  1  0  0  0  0
 58 59  1  0  0  0  0
 58130  1  0  0  0  0
 59 60  1  0  0  0  0
 59132  1  0  0  0  0
 59133  1  0  0  0  0
 60 62  1  0  0  0  0
 60134  1  0  0  0  0
 61 62  1  0  0  0  0
 61 63  1  6  0  0  0
 61135  1  0  0  0  0
 62136  1  0  0  0  0
 63137  1  0  0  0  0
 63138  1  0  0  0  0
 63139  1  0  0  0  0
 64 66  1  0  0  0  0
 64140  1  0  0  0  0
 65141  1  0  0  0  0
 65142  1  0  0  0  0
 65143  1  0  0  0  0
 66 67  1  0  0  0  0
 66144  1  0  0  0  0
 66145  1  0  0  0  0
 67 68  1  0  0  0  0
 67146  1  0  0  0  0
 68 69  1  0  0  0  0
 68147  1  0  0  0  0
 69 70  1  6  0  0  0
 69148  1  0  0  0  0
 70149  1  0  0  0  0
 70150  1  0  0  0  0
 70151  1  0  0  0  0
 71 72  1  0  0  0  0
 71152  1  0  0  0  0
 72 73  1  0  0  0  0
 72153  1  0  0  0  0
 72154  1  0  0  0  0
 73 74  1  0  0  0  0
 73155  1  0  0  0  0
 74 75  1  0  0  0  0
 74156  1  0  0  0  0
 75 78  1  1  0  0  0
 75157  1  0  0  0  0
 76158  1  0  0  0  0
 76159  1  0  0  0  0
 76160  1  0  0  0  0
 77 79  1  0  0  0  0
 77161  1  0  0  0  0
 78162  1  0  0  0  0
 78163  1  0  0  0  0
 78164  1  0  0  0  0
 79 80  1  0  0  0  0
 79165  1  0  0  0  0
 79166  1  0  0  0  0
 80 81  1  0  0  0  0
 80167  1  0  0  0  0
 81 82  1  0  0  0  0
 81168  1  0  0  0  0
 82 84  1  1  0  0  0
 82169  1  0  0  0  0
 83170  1  0  0  0  0
 83171  1  0  0  0  0
 83172  1  0  0  0  0
 84173  1  0  0  0  0
 84174  1  0  0  0  0
 84175  1  0  0  0  0
 85177  1  0  0  0  0
 85178  1  0  0  0  0
 85179  1  0  0  0  0
M  END
> <PUBCHEM_COMPOUND_CID>
102165352

> <PUBCHEM_COMPOUND_CANONICALIZED>
1

> <PUBCHEM_CACTVS_COMPLEXITY>
2320

> <PUBCHEM_CACTVS_HBOND_ACCEPTOR>
23

> <PUBCHEM_CACTVS_HBOND_DONOR>
6

> <PUBCHEM_CACTVS_ROTATABLE_BOND>
18

> <PUBCHEM_CACTVS_SUBSKEYS>
AAADcfB8PgAAAAAAAAAAAAAAAAAAAYAAAAA0aNEiQAAAAGCBAAAAGgAACAAAD1SwmAMyDoAABgCIAqDSCAICAAAkIAAIiAFGCMgZNjKCNRqicQAlwBEPuYfK7PzPoAAAAAAAAADCAAYQADCAAYQADAAAAA==

> <PUBCHEM_IUPAC_OPENEYE_NAME>
[(3S,8S,9R,10R,12R,13S,14R,17S)-17-acetyl-8,14,17-trihydroxy-3-[(2R,4S,5S,6R)-4-hydroxy-5-[(2S,4R,5R,6R)-5-[(2S,4R,5S,6S)-5-[(2S,4S,5R,6R)-5-[(2S,4R,5S,6S)-5-hydroxy-4-methoxy-6-methyl-tetrahydropyran-2-yl]oxy-4-methoxy-6-methyl-tetrahydropyran-2-yl]oxy-4-methoxy-6-methyl-tetrahydropyran-2-yl]oxy-4-methoxy-6-methyl-tetrahydropyran-2-yl]oxy-6-methyl-tetrahydropyran-2-yl]oxy-10,13-dimethyl-1,2,3,4,7,9,11,12,15,16-decahydrocyclopenta[a]phenanthren-12-yl] 4-hydroxybenzoate

> <PUBCHEM_IUPAC_CAS_NAME>
4-hydroxybenzoic acid [(3S,8S,9R,10R,12R,13S,14R,17S)-17-acetyl-8,14,17-trihydroxy-3-[[(2R,4S,5S,6R)-4-hydroxy-5-[[(2S,4R,5R,6R)-5-[[(2S,4R,5S,6S)-5-[[(2S,4S,5R,6R)-5-[[(2S,4R,5S,6S)-5-hydroxy-4-methoxy-6-methyl-2-oxanyl]oxy]-4-methoxy-6-methyl-2-oxanyl]oxy]-4-methoxy-6-methyl-2-oxanyl]oxy]-4-methoxy-6-methyl-2-oxanyl]oxy]-6-methyl-2-oxanyl]oxy]-10,13-dimethyl-1,2,3,4,7,9,11,12,15,16-decahydrocyclopenta[a]phenanthren-12-yl] ester

> <PUBCHEM_IUPAC_NAME_MARKUP>
[(3<I>S</I>,8<I>S</I>,9<I>R</I>,10<I>R</I>,12<I>R</I>,13<I>S</I>,14<I>R</I>,17<I>S</I>)-17-acetyl-8,14,17-trihydroxy-3-[(2<I>R</I>,4<I>S</I>,5<I>S</I>,6<I>R</I>)-4-hydroxy-5-[(2<I>S</I>,4<I>R</I>,5<I>R</I>,6<I>R</I>)-5-[(2<I>S</I>,4<I>R</I>,5<I>S</I>,6<I>S</I>)-5-[(2<I>S</I>,4<I>S</I>,5<I>R</I>,6<I>R</I>)-5-[(2<I>S</I>,4<I>R</I>,5<I>S</I>,6<I>S</I>)-5-hydroxy-4-methoxy-6-methyloxan-2-yl]oxy-4-methoxy-6-methyloxan-2-yl]oxy-4-methoxy-6-methyloxan-2-yl]oxy-4-methoxy-6-methyloxan-2-yl]oxy-6-methyloxan-2-yl]oxy-10,13-dimethyl-1,2,3,4,7,9,11,12,15,16-decahydrocyclopenta[a]phenanthren-12-yl] 4-hydroxybenzoate

> <PUBCHEM_IUPAC_NAME>
[(3S,8S,9R,10R,12R,13S,14R,17S)-17-acetyl-8,14,17-trihydroxy-3-[(2R,4S,5S,6R)-4-hydroxy-5-[(2S,4R,5R,6R)-5-[(2S,4R,5S,6S)-5-[(2S,4S,5R,6R)-5-[(2S,4R,5S,6S)-5-hydroxy-4-methoxy-6-methyloxan-2-yl]oxy-4-methoxy-6-methyloxan-2-yl]oxy-4-methoxy-6-methyloxan-2-yl]oxy-4-methoxy-6-methyloxan-2-yl]oxy-6-methyloxan-2-yl]oxy-10,13-dimethyl-1,2,3,4,7,9,11,12,15,16-decahydrocyclopenta[a]phenanthren-12-yl] 4-hydroxybenzoate

> <PUBCHEM_IUPAC_SYSTEMATIC_NAME>
[(3S,8S,9R,10R,12R,13S,14R,17S)-17-ethanoyl-3-[(2R,4S,5S,6R)-5-[(2S,4R,5R,6R)-4-methoxy-5-[(2S,4R,5S,6S)-4-methoxy-5-[(2S,4S,5R,6R)-4-methoxy-5-[(2S,4R,5S,6S)-4-methoxy-6-methyl-5-oxidanyl-oxan-2-yl]oxy-6-methyl-oxan-2-yl]oxy-6-methyl-oxan-2-yl]oxy-6-methyl-oxan-2-yl]oxy-6-methyl-4-oxidanyl-oxan-2-yl]oxy-10,13-dimethyl-8,14,17-tris(oxidanyl)-1,2,3,4,7,9,11,12,15,16-decahydrocyclopenta[a]phenanthren-12-yl] 4-oxidanylbenzoate

> <PUBCHEM_IUPAC_TRADITIONAL_NAME>
4-hydroxybenzoic acid [(3S,8S,9R,10R,12R,13S,14R,17S)-17-acetyl-8,14,17-trihydroxy-3-[(2R,4S,5S,6R)-4-hydroxy-5-[(2S,4R,5R,6R)-5-[(2S,4R,5S,6S)-5-[(2S,4S,5R,6R)-5-[(2S,4R,5S,6S)-5-hydroxy-4-methoxy-6-methyl-tetrahydropyran-2-yl]oxy-4-methoxy-6-methyl-tetrahydropyran-2-yl]oxy-4-methoxy-6-methyl-tetrahydropyran-2-yl]oxy-4-methoxy-6-methyl-tetrahydropyran-2-yl]oxy-6-methyl-tetrahydropyran-2-yl]oxy-10,13-dimethyl-1,2,3,4,7,9,11,12,15,16-decahydrocyclopenta[a]phenanthren-12-yl] ester

> <PUBCHEM_IUPAC_INCHI>
InChI=1S/C62H94O23/c1-30-52(66)41(71-9)25-48(75-30)83-54-33(4)78-50(27-43(54)73-11)85-56-34(5)79-51(28-44(56)74-12)84-55-32(3)77-49(26-42(55)72-10)82-53-31(2)76-47(24-40(53)65)80-39-18-19-58(7)37(23-39)17-20-61(69)45(58)29-46(81-57(67)36-13-15-38(64)16-14-36)59(8)60(68,35(6)63)21-22-62(59,61)70/h13-17,30-34,39-56,64-66,68-70H,18-29H2,1-12H3/t30-,31+,32+,33+,34-,39-,40-,41+,42+,43-,44+,45+,46+,47-,48-,49-,50-,51-,52-,53+,54+,55+,56-,58-,59+,60+,61-,62+/m0/s1

> <PUBCHEM_IUPAC_INCHIKEY>
QZMHUGKKOAAXEQ-WOVJBFNJSA-N

> <PUBCHEM_XLOGP3_AA>
3.1

> <PUBCHEM_EXACT_MASS>
1206.618589

> <PUBCHEM_MOLECULAR_FORMULA>
C62H94O23

> <PUBCHEM_MOLECULAR_WEIGHT>
1207.4

> <PUBCHEM_OPENEYE_CAN_SMILES>
CC1C(C(CC(O1)OC2C(OC(CC2OC)OC3C(OC(CC3OC)OC4C(OC(CC4OC)OC5C(OC(CC5O)OC6CCC7(C8CC(C9(C(CCC9(C8(CC=C7C6)O)O)(C(=O)C)O)C)OC(=O)C1=CC=C(C=C1)O)C)C)C)C)C)OC)O

> <PUBCHEM_OPENEYE_ISO_SMILES>
C[C@H]1[C@@H]([C@@H](C[C@@H](O1)O[C@@H]2[C@H](O[C@H](C[C@@H]2OC)O[C@H]3[C@@H](O[C@H](C[C@H]3OC)O[C@@H]4[C@H](O[C@H](C[C@H]4OC)O[C@@H]5[C@H](O[C@H](C[C@@H]5O)O[C@H]6CC[C@@]7([C@H]8C[C@H]([C@@]9([C@@](CC[C@@]9([C@@]8(CC=C7C6)O)O)(C(=O)C)O)C)OC(=O)C1=CC=C(C=C1)O)C)C)C)C)C)OC)O

> <PUBCHEM_CACTVS_TPSA>
294

> <PUBCHEM_MONOISOTOPIC_WEIGHT>
1206.618589

> <PUBCHEM_TOTAL_CHARGE>
0

> <PUBCHEM_HEAVY_ATOM_COUNT>
85

> <PUBCHEM_ATOM_DEF_STEREO_COUNT>
28

> <PUBCHEM_ATOM_UDEF_STEREO_COUNT>
0

> <PUBCHEM_BOND_DEF_STEREO_COUNT>
0

> <PUBCHEM_BOND_UDEF_STEREO_COUNT>
0

> <PUBCHEM_ISOTOPIC_ATOM_COUNT>
0

> <PUBCHEM_COMPONENT_COUNT>
1

> <PUBCHEM_CACTVS_TAUTO_COUNT>
-1

> <PUBCHEM_COORDINATE_TYPE>
1
5
255

> <PUBCHEM_BONDANNOTATIONS>
24  1  6
53  10  6
58  10  6
60  13  6
62  14  5
64  14  5
68  16  5
71  16  5
67  17  5
74  19  6
77  19  6
26  2  6
73  20  6
80  22  6
81  23  6
25  35  6
27  86  5
28  3  6
30  39  6
29  4  6
47  50  8
47  51  8
43  5  6
46  5  5
50  54  8
51  55  8
52  56  5
54  57  8
55  57  8
61  63  6
69  70  6
75  78  5
82  84  5
49  9  6

$$$$
