76329539
  -OEChem-09022014152D

205215  0     1  0  0  0  0  0999 V2000
   18.2760    8.8087    0.0000 O   0  0  0  0  0  0  0  0  0  0  0  0
   18.2785    8.1560    0.0000 O   0  0  0  0  0  0  0  0  0  0  0  0
   14.6906    9.4686    0.0000 O   0  0  0  0  0  0  0  0  0  0  0  0
   15.6495   10.6537    0.0000 O   0  0  0  0  0  0  0  0  0  0  0  0
   16.3933    3.2784    0.0000 O   0  0  0  0  0  0  0  0  0  0  0  0
   15.6070   11.8469    0.0000 O   0  0  0  0  0  0  0  0  0  0  0  0
   13.8303    7.9652    0.0000 O   0  0  0  0  0  0  0  0  0  0  0  0
   14.6613    3.2784    0.0000 O   0  0  0  0  0  0  0  0  0  0  0  0
   14.6613    0.2784    0.0000 O   0  0  0  0  0  0  0  0  0  0  0  0
   12.9292    1.2784    0.0000 O   0  0  0  0  0  0  0  0  0  0  0  0
   12.0632   -0.2216    0.0000 O   0  0  0  0  0  0  0  0  0  0  0  0
   14.6613   -1.7216    0.0000 O   0  0  0  0  0  0  0  0  0  0  0  0
   12.9292   -2.7216    0.0000 O   0  0  0  0  0  0  0  0  0  0  0  0
   12.0632   -4.2216    0.0000 O   0  0  0  0  0  0  0  0  0  0  0  0
    9.4651   -2.7216    0.0000 O   0  0  0  0  0  0  0  0  0  0  0  0
    9.4651   -4.7216    0.0000 O   0  0  0  0  0  0  0  0  0  0  0  0
    8.5991   -6.2216    0.0000 O   0  0  0  0  0  0  0  0  0  0  0  0
    9.4651   -8.7216    0.0000 O   0  0  0  0  0  0  0  0  0  0  0  0
   11.1972   -7.7216    0.0000 O   0  0  0  0  0  0  0  0  0  0  0  0
    7.7331   -8.7216    0.0000 O   0  0  0  0  0  0  0  0  0  0  0  0
    6.0010  -10.7216    0.0000 O   0  0  0  0  0  0  0  0  0  0  0  0
    9.4651  -10.7216    0.0000 O   0  0  0  0  0  0  0  0  0  0  0  0
    7.7331  -11.7216    0.0000 O   0  0  0  0  0  0  0  0  0  0  0  0
    4.2690  -10.7216    0.0000 O   0  0  0  0  0  0  0  0  0  0  0  0
    6.0010   -8.7216    0.0000 O   0  0  0  0  0  0  0  0  0  0  0  0
    6.0010   -7.7216    0.0000 O   0  0  0  0  0  0  0  0  0  0  0  0
    4.2690   -7.7216    0.0000 O   0  0  0  0  0  0  0  0  0  0  0  0
    2.5369   -8.7216    0.0000 O   0  0  0  0  0  0  0  0  0  0  0  0
    2.5369  -11.7216    0.0000 O   0  0  0  0  0  0  0  0  0  0  0  0
   17.2905    8.9786    0.0000 C   0  0  2  0  0  0  0  0  0  0  0  0
   16.4226    9.4752    0.0000 C   0  0  1  0  0  0  0  0  0  0  0  0
   17.2944    7.9786    0.0000 C   0  0  2  0  0  0  0  0  0  0  0  0
   16.4303    7.4752    0.0000 C   0  0  1  0  0  0  0  0  0  0  0  0
   16.6281   10.4478    0.0000 C   0  0  1  0  0  0  0  0  0  0  0  0
   15.5585    8.9719    0.0000 C   0  0  1  0  0  0  0  0  0  0  0  0
   16.4183    6.4337    0.0000 C   0  0  2  0  0  0  0  0  0  0  0  0
   15.5624    7.9719    0.0000 C   0  0  0  0  0  0  0  0  0  0  0  0
   18.0250    9.6485    0.0000 C   0  0  0  0  0  0  0  0  0  0  0  0
   17.6164   10.5547    0.0000 C   0  0  0  0  0  0  0  0  0  0  0  0
   18.2064    7.4752    0.0000 C   0  0  0  0  0  0  0  0  0  0  0  0
   15.5547    9.9719    0.0000 C   0  0  0  0  0  0  0  0  0  0  0  0
   17.3183    5.9094    0.0000 C   0  0  0  0  0  0  0  0  0  0  0  0
   15.4684    5.9094    0.0000 C   0  0  0  0  0  0  0  0  0  0  0  0
   18.2184    6.4337    0.0000 C   0  0  0  0  0  0  0  0  0  0  0  0
   15.5542    6.9370    0.0000 C   0  0  0  0  0  0  0  0  0  0  0  0
   16.5214   11.4421    0.0000 C   0  0  0  0  0  0  0  0  0  0  0  0
   17.3309    4.8245    0.0000 C   0  0  0  0  0  0  0  0  0  0  0  0
   15.4558    4.8245    0.0000 C   0  0  0  0  0  0  0  0  0  0  0  0
   16.3933    4.2784    0.0000 C   0  0  2  0  0  0  0  0  0  0  0  0
   17.3292   12.0316    0.0000 C   0  0  0  0  0  0  0  0  0  0  0  0
   13.8265    8.9652    0.0000 C   0  0  0  0  0  0  0  0  0  0  0  0
   15.5273    2.7784    0.0000 C   0  0  2  0  0  0  0  0  0  0  0  0
   12.9585    9.4619    0.0000 C   0  0  0  0  0  0  0  0  0  0  0  0
   15.5273    1.7784    0.0000 C   0  0  0  0  0  0  0  0  0  0  0  0
   14.6613    1.2784    0.0000 C   0  0  1  0  0  0  0  0  0  0  0  0
   13.7953    2.7784    0.0000 C   0  0  1  0  0  0  0  0  0  0  0  0
   12.0944    8.9585    0.0000 C   0  0  0  0  0  0  0  0  0  0  0  0
   13.7953    1.7784    0.0000 C   0  0  1  0  0  0  0  0  0  0  0  0
   12.9292    3.2784    0.0000 C   0  0  0  0  0  0  0  0  0  0  0  0
   11.2265    9.4552    0.0000 C   0  0  0  0  0  0  0  0  0  0  0  0
   12.9292    0.2784    0.0000 C   0  0  2  0  0  0  0  0  0  0  0  0
   15.5273   -0.2216    0.0000 C   0  0  0  0  0  0  0  0  0  0  0  0
   11.2226   10.4552    0.0000 C   0  0  0  0  0  0  0  0  0  0  0  0
   10.3624    8.9519    0.0000 C   0  0  0  0  0  0  0  0  0  0  0  0
   13.7953   -0.2216    0.0000 C   0  0  0  0  0  0  0  0  0  0  0  0
   10.3547   10.9519    0.0000 C   0  0  0  0  0  0  0  0  0  0  0  0
    9.4944    9.4485    0.0000 C   0  0  0  0  0  0  0  0  0  0  0  0
   13.7953   -1.2216    0.0000 C   0  0  1  0  0  0  0  0  0  0  0  0
   12.0632   -1.2216    0.0000 C   0  0  2  0  0  0  0  0  0  0  0  0
   12.9292   -1.7216    0.0000 C   0  0  1  0  0  0  0  0  0  0  0  0
    9.4906   10.4485    0.0000 C   0  0  0  0  0  0  0  0  0  0  0  0
   11.1972   -1.7216    0.0000 C   0  0  0  0  0  0  0  0  0  0  0  0
   12.0632   -3.2216    0.0000 C   0  0  2  0  0  0  0  0  0  0  0  0
   15.5273   -1.2216    0.0000 C   0  0  0  0  0  0  0  0  0  0  0  0
   11.1972   -2.7216    0.0000 C   0  0  0  0  0  0  0  0  0  0  0  0
   10.3312   -3.2216    0.0000 C   0  0  1  0  0  0  0  0  0  0  0  0
   11.1972   -4.7216    0.0000 C   0  0  1  0  0  0  0  0  0  0  0  0
   10.3312   -4.2216    0.0000 C   0  0  1  0  0  0  0  0  0  0  0  0
   11.1972   -5.7216    0.0000 C   0  0  0  0  0  0  0  0  0  0  0  0
    9.4651   -5.7216    0.0000 C   0  0  2  0  0  0  0  0  0  0  0  0
   10.3312   -6.2216    0.0000 C   0  0  0  0  0  0  0  0  0  0  0  0
    9.4651   -1.7216    0.0000 C   0  0  0  0  0  0  0  0  0  0  0  0
   10.3312   -7.2216    0.0000 C   0  0  2  0  0  0  0  0  0  0  0  0
    9.4651   -7.7216    0.0000 C   0  0  2  0  0  0  0  0  0  0  0  0
    8.5991   -7.2216    0.0000 C   0  0  2  0  0  0  0  0  0  0  0  0
    8.5991   -9.2216    0.0000 C   0  0  2  0  0  0  0  0  0  0  0  0
    8.5991  -10.2216    0.0000 C   0  0  1  0  0  0  0  0  0  0  0  0
    6.8671  -10.2216    0.0000 C   0  0  1  0  0  0  0  0  0  0  0  0
    7.7331  -10.7216    0.0000 C   0  0  2  0  0  0  0  0  0  0  0  0
    7.7331   -7.7216    0.0000 C   0  0  0  0  0  0  0  0  0  0  0  0
    6.8671   -9.2216    0.0000 C   0  0  1  0  0  0  0  0  0  0  0  0
    5.1350  -10.2216    0.0000 C   0  0  2  0  0  0  0  0  0  0  0  0
    6.0010   -8.7216    0.0000 C   0  0  0  0  0  0  0  0  0  0  0  0
    5.1350   -9.2216    0.0000 C   0  0  1  0  0  0  0  0  0  0  0  0
    4.2690   -8.7216    0.0000 C   0  0  2  0  0  0  0  0  0  0  0  0
    3.4030   -9.2216    0.0000 C   0  0  1  0  0  0  0  0  0  0  0  0
    3.4030  -10.2216    0.0000 C   0  0  1  0  0  0  0  0  0  0  0  0
   12.0632   -7.2216    0.0000 C   0  0  0  0  0  0  0  0  0  0  0  0
    2.5369  -10.7216    0.0000 C   0  0  0  0  0  0  0  0  0  0  0  0
   17.1648    7.0474    0.0000 H   0  0  0  0  0  0  0  0  0  0  0  0
   15.5561    9.5919    0.0000 H   0  0  0  0  0  0  0  0  0  0  0  0
   14.9514    8.0772    0.0000 H   0  0  0  0  0  0  0  0  0  0  0  0
   15.3526    7.3885    0.0000 H   0  0  0  0  0  0  0  0  0  0  0  0
   18.3924    9.1491    0.0000 H   0  0  0  0  0  0  0  0  0  0  0  0
   18.5603    9.9613    0.0000 H   0  0  0  0  0  0  0  0  0  0  0  0
   18.2052   10.7487    0.0000 H   0  0  0  0  0  0  0  0  0  0  0  0
   17.4853   11.1607    0.0000 H   0  0  0  0  0  0  0  0  0  0  0  0
   18.8184    7.3762    0.0000 H   0  0  0  0  0  0  0  0  0  0  0  0
   18.4086    8.0613    0.0000 H   0  0  0  0  0  0  0  0  0  0  0  0
   15.8626   10.5100    0.0000 H   0  0  0  0  0  0  0  0  0  0  0  0
   15.0165   10.2798    0.0000 H   0  0  0  0  0  0  0  0  0  0  0  0
   15.2467    9.4338    0.0000 H   0  0  0  0  0  0  0  0  0  0  0  0
   15.2661    6.4955    0.0000 H   0  0  0  0  0  0  0  0  0  0  0  0
   14.8563    5.8104    0.0000 H   0  0  0  0  0  0  0  0  0  0  0  0
   18.7577    6.1278    0.0000 H   0  0  0  0  0  0  0  0  0  0  0  0
   18.6727    9.2852    0.0000 H   0  0  0  0  0  0  0  0  0  0  0  0
   15.8662    7.4728    0.0000 H   0  0  0  0  0  0  0  0  0  0  0  0
   15.0184    7.2491    0.0000 H   0  0  0  0  0  0  0  0  0  0  0  0
   15.2421    6.4013    0.0000 H   0  0  0  0  0  0  0  0  0  0  0  0
   18.8620    7.9462    0.0000 H   0  0  0  0  0  0  0  0  0  0  0  0
   17.5467    4.2432    0.0000 H   0  0  0  0  0  0  0  0  0  0  0  0
   17.9405    4.9376    0.0000 H   0  0  0  0  0  0  0  0  0  0  0  0
   14.8462    4.9376    0.0000 H   0  0  0  0  0  0  0  0  0  0  0  0
   15.2400    4.2432    0.0000 H   0  0  0  0  0  0  0  0  0  0  0  0
   16.9309    3.9694    0.0000 H   0  0  0  0  0  0  0  0  0  0  0  0
   15.4566   11.2429    0.0000 H   0  0  0  0  0  0  0  0  0  0  0  0
   17.6947   11.5308    0.0000 H   0  0  0  0  0  0  0  0  0  0  0  0
   17.8300   12.3971    0.0000 H   0  0  0  0  0  0  0  0  0  0  0  0
   16.9637   12.5325    0.0000 H   0  0  0  0  0  0  0  0  0  0  0  0
   15.5273    3.3984    0.0000 H   0  0  0  0  0  0  0  0  0  0  0  0
   12.9561   10.0819    0.0000 H   0  0  0  0  0  0  0  0  0  0  0  0
   15.7394    1.1958    0.0000 H   0  0  0  0  0  0  0  0  0  0  0  0
   16.1379    1.8860    0.0000 H   0  0  0  0  0  0  0  0  0  0  0  0
   15.1982    0.9684    0.0000 H   0  0  0  0  0  0  0  0  0  0  0  0
   13.7953    3.3984    0.0000 H   0  0  0  0  0  0  0  0  0  0  0  0
   12.0968    8.3386    0.0000 H   0  0  0  0  0  0  0  0  0  0  0  0
   13.7953    1.1584    0.0000 H   0  0  0  0  0  0  0  0  0  0  0  0
   13.2392    3.8153    0.0000 H   0  0  0  0  0  0  0  0  0  0  0  0
   12.3923    3.5884    0.0000 H   0  0  0  0  0  0  0  0  0  0  0  0
   12.6192    2.7414    0.0000 H   0  0  0  0  0  0  0  0  0  0  0  0
   12.3923    0.5884    0.0000 H   0  0  0  0  0  0  0  0  0  0  0  0
   15.2173   -0.7586    0.0000 H   0  0  0  0  0  0  0  0  0  0  0  0
   16.0643   -0.5316    0.0000 H   0  0  0  0  0  0  0  0  0  0  0  0
   15.8373    0.3153    0.0000 H   0  0  0  0  0  0  0  0  0  0  0  0
   11.7584   10.7673    0.0000 H   0  0  0  0  0  0  0  0  0  0  0  0
   10.3648    8.3319    0.0000 H   0  0  0  0  0  0  0  0  0  0  0  0
   14.4058   -0.3293    0.0000 H   0  0  0  0  0  0  0  0  0  0  0  0
   14.0073    0.3610    0.0000 H   0  0  0  0  0  0  0  0  0  0  0  0
   10.3523   11.5718    0.0000 H   0  0  0  0  0  0  0  0  0  0  0  0
    8.9587    9.1365    0.0000 H   0  0  0  0  0  0  0  0  0  0  0  0
   13.7953   -1.8416    0.0000 H   0  0  0  0  0  0  0  0  0  0  0  0
   11.5263   -0.9116    0.0000 H   0  0  0  0  0  0  0  0  0  0  0  0
   12.3923   -2.0316    0.0000 H   0  0  0  0  0  0  0  0  0  0  0  0
    8.9525   10.7564    0.0000 H   0  0  0  0  0  0  0  0  0  0  0  0
   10.8872   -1.1847    0.0000 H   0  0  0  0  0  0  0  0  0  0  0  0
   10.6603   -2.0316    0.0000 H   0  0  0  0  0  0  0  0  0  0  0  0
   11.5072   -2.2586    0.0000 H   0  0  0  0  0  0  0  0  0  0  0  0
   12.0632   -2.6016    0.0000 H   0  0  0  0  0  0  0  0  0  0  0  0
   15.8373   -1.7586    0.0000 H   0  0  0  0  0  0  0  0  0  0  0  0
   16.0643   -0.9116    0.0000 H   0  0  0  0  0  0  0  0  0  0  0  0
   15.2173   -0.6847    0.0000 H   0  0  0  0  0  0  0  0  0  0  0  0
   11.5957   -2.2467    0.0000 H   0  0  0  0  0  0  0  0  0  0  0  0
   10.7987   -2.2467    0.0000 H   0  0  0  0  0  0  0  0  0  0  0  0
   10.3312   -2.6016    0.0000 H   0  0  0  0  0  0  0  0  0  0  0  0
   11.7341   -5.0316    0.0000 H   0  0  0  0  0  0  0  0  0  0  0  0
    9.7942   -3.9116    0.0000 H   0  0  0  0  0  0  0  0  0  0  0  0
   10.5772   -5.7216    0.0000 H   0  0  0  0  0  0  0  0  0  0  0  0
   11.1972   -6.3416    0.0000 H   0  0  0  0  0  0  0  0  0  0  0  0
   11.8172   -5.7216    0.0000 H   0  0  0  0  0  0  0  0  0  0  0  0
   10.0021   -5.4116    0.0000 H   0  0  0  0  0  0  0  0  0  0  0  0
   10.9417   -6.3293    0.0000 H   0  0  0  0  0  0  0  0  0  0  0  0
   10.5432   -5.6390    0.0000 H   0  0  0  0  0  0  0  0  0  0  0  0
   10.0851   -1.7216    0.0000 H   0  0  0  0  0  0  0  0  0  0  0  0
    9.4651   -1.1016    0.0000 H   0  0  0  0  0  0  0  0  0  0  0  0
    8.8451   -1.7216    0.0000 H   0  0  0  0  0  0  0  0  0  0  0  0
   10.8681   -6.9116    0.0000 H   0  0  0  0  0  0  0  0  0  0  0  0
   10.0021   -8.0316    0.0000 H   0  0  0  0  0  0  0  0  0  0  0  0
    8.0622   -6.9116    0.0000 H   0  0  0  0  0  0  0  0  0  0  0  0
    8.5991   -8.6016    0.0000 H   0  0  0  0  0  0  0  0  0  0  0  0
    8.5991  -10.8416    0.0000 H   0  0  0  0  0  0  0  0  0  0  0  0
    6.3301   -9.9116    0.0000 H   0  0  0  0  0  0  0  0  0  0  0  0
    7.1962  -11.0316    0.0000 H   0  0  0  0  0  0  0  0  0  0  0  0
    7.4231   -7.1847    0.0000 H   0  0  0  0  0  0  0  0  0  0  0  0
    7.1962   -8.0316    0.0000 H   0  0  0  0  0  0  0  0  0  0  0  0
    8.0431   -8.2586    0.0000 H   0  0  0  0  0  0  0  0  0  0  0  0
    6.8671   -8.6016    0.0000 H   0  0  0  0  0  0  0  0  0  0  0  0
    5.1350  -10.8416    0.0000 H   0  0  0  0  0  0  0  0  0  0  0  0
    5.1350   -8.6016    0.0000 H   0  0  0  0  0  0  0  0  0  0  0  0
    5.3905   -8.6140    0.0000 H   0  0  0  0  0  0  0  0  0  0  0  0
    5.7890   -9.3042    0.0000 H   0  0  0  0  0  0  0  0  0  0  0  0
    3.7320   -8.4116    0.0000 H   0  0  0  0  0  0  0  0  0  0  0  0
    3.4030   -8.6016    0.0000 H   0  0  0  0  0  0  0  0  0  0  0  0
    3.4030  -10.8416    0.0000 H   0  0  0  0  0  0  0  0  0  0  0  0
   12.3732   -7.7586    0.0000 H   0  0  0  0  0  0  0  0  0  0  0  0
   12.6002   -6.9116    0.0000 H   0  0  0  0  0  0  0  0  0  0  0  0
   11.7532   -6.6847    0.0000 H   0  0  0  0  0  0  0  0  0  0  0  0
   10.0021  -10.4116    0.0000 H   0  0  0  0  0  0  0  0  0  0  0  0
    8.2700  -12.0316    0.0000 H   0  0  0  0  0  0  0  0  0  0  0  0
    2.3249  -10.1390    0.0000 H   0  0  0  0  0  0  0  0  0  0  0  0
    1.9264  -10.8293    0.0000 H   0  0  0  0  0  0  0  0  0  0  0  0
    6.0010   -8.1016    0.0000 H   0  0  0  0  0  0  0  0  0  0  0  0
    5.4641   -7.4116    0.0000 H   0  0  0  0  0  0  0  0  0  0  0  0
    3.7320   -7.4116    0.0000 H   0  0  0  0  0  0  0  0  0  0  0  0
    2.0000   -9.0316    0.0000 H   0  0  0  0  0  0  0  0  0  0  0  0
    2.0000  -12.0316    0.0000 H   0  0  0  0  0  0  0  0  0  0  0  0
 30  1  1  1  0  0  0
  1116  1  0  0  0  0
 32  2  1  1  0  0  0
  2120  1  0  0  0  0
 35  3  1  1  0  0  0
  3 51  1  0  0  0  0
 34  4  1  6  0  0  0
  4126  1  0  0  0  0
 49  5  1  1  0  0  0
 52  5  1  1  0  0  0
  6 46  2  0  0  0  0
  7 51  2  0  0  0  0
  8 52  1  0  0  0  0
  8 56  1  0  0  0  0
 55  9  1  6  0  0  0
  9 62  1  0  0  0  0
 58 10  1  6  0  0  0
 61 10  1  1  0  0  0
 11 61  1  0  0  0  0
 11 69  1  0  0  0  0
 68 12  1  6  0  0  0
 12 74  1  0  0  0  0
 70 13  1  6  0  0  0
 73 13  1  6  0  0  0
 14 73  1  0  0  0  0
 14 77  1  0  0  0  0
 76 15  1  1  0  0  0
 15 82  1  0  0  0  0
 78 16  1  1  0  0  0
 80 16  1  1  0  0  0
 17 80  1  0  0  0  0
 17 85  1  0  0  0  0
 84 18  1  1  0  0  0
 86 18  1  1  0  0  0
 83 19  1  1  0  0  0
 19 98  1  0  0  0  0
 20 86  1  0  0  0  0
 20 91  1  0  0  0  0
 88 21  1  6  0  0  0
 92 21  1  6  0  0  0
 87 22  1  6  0  0  0
 22197  1  0  0  0  0
 89 23  1  1  0  0  0
 23198  1  0  0  0  0
 24 92  1  0  0  0  0
 24 97  1  0  0  0  0
 94 25  1  1  0  0  0
 25201  1  0  0  0  0
 26 93  1  0  0  0  0
 26202  1  0  0  0  0
 95 27  1  6  0  0  0
 27203  1  0  0  0  0
 96 28  1  1  0  0  0
 28204  1  0  0  0  0
 29 99  1  0  0  0  0
 29205  1  0  0  0  0
 30 31  1  0  0  0  0
 30 32  1  0  0  0  0
 30 38  1  0  0  0  0
 31 34  1  0  0  0  0
 31 35  1  0  0  0  0
 31 41  1  1  0  0  0
 32 33  1  0  0  0  0
 32 40  1  0  0  0  0
 33 36  1  0  0  0  0
 33 37  1  0  0  0  0
 33100  1  6  0  0  0
 34 39  1  0  0  0  0
 34 46  1  0  0  0  0
 35 37  1  0  0  0  0
 35101  1  0  0  0  0
 36 42  1  0  0  0  0
 36 43  1  0  0  0  0
 36 45  1  1  0  0  0
 37102  1  0  0  0  0
 37103  1  0  0  0  0
 38 39  1  0  0  0  0
 38104  1  0  0  0  0
 38105  1  0  0  0  0
 39106  1  0  0  0  0
 39107  1  0  0  0  0
 40 44  1  0  0  0  0
 40108  1  0  0  0  0
 40109  1  0  0  0  0
 41110  1  0  0  0  0
 41111  1  0  0  0  0
 41112  1  0  0  0  0
 42 44  2  0  0  0  0
 42 47  1  0  0  0  0
 43 48  1  0  0  0  0
 43113  1  0  0  0  0
 43114  1  0  0  0  0
 44115  1  0  0  0  0
 45117  1  0  0  0  0
 45118  1  0  0  0  0
 45119  1  0  0  0  0
 46 50  1  0  0  0  0
 47 49  1  0  0  0  0
 47121  1  0  0  0  0
 47122  1  0  0  0  0
 48 49  1  0  0  0  0
 48123  1  0  0  0  0
 48124  1  0  0  0  0
 49125  1  0  0  0  0
 50127  1  0  0  0  0
 50128  1  0  0  0  0
 50129  1  0  0  0  0
 51 53  1  0  0  0  0
 52 54  1  0  0  0  0
 52130  1  0  0  0  0
 53 57  2  0  0  0  0
 53131  1  0  0  0  0
 54 55  1  0  0  0  0
 54132  1  0  0  0  0
 54133  1  0  0  0  0
 55 58  1  0  0  0  0
 55134  1  0  0  0  0
 56 58  1  0  0  0  0
 56 59  1  1  0  0  0
 56135  1  0  0  0  0
 57 60  1  0  0  0  0
 57136  1  0  0  0  0
 58137  1  0  0  0  0
 59138  1  0  0  0  0
 59139  1  0  0  0  0
 59140  1  0  0  0  0
 60 63  2  0  0  0  0
 60 64  1  0  0  0  0
 61 65  1  0  0  0  0
 61141  1  0  0  0  0
 62142  1  0  0  0  0
 62143  1  0  0  0  0
 62144  1  0  0  0  0
 63 66  1  0  0  0  0
 63145  1  0  0  0  0
 64 67  2  0  0  0  0
 64146  1  0  0  0  0
 65 68  1  0  0  0  0
 65147  1  0  0  0  0
 65148  1  0  0  0  0
 66 71  2  0  0  0  0
 66149  1  0  0  0  0
 67 71  1  0  0  0  0
 67150  1  0  0  0  0
 68 70  1  0  0  0  0
 68151  1  0  0  0  0
 69 70  1  0  0  0  0
 69 72  1  6  0  0  0
 69152  1  0  0  0  0
 70153  1  0  0  0  0
 71154  1  0  0  0  0
 72155  1  0  0  0  0
 72156  1  0  0  0  0
 72157  1  0  0  0  0
 73 75  1  0  0  0  0
 73158  1  0  0  0  0
 74159  1  0  0  0  0
 74160  1  0  0  0  0
 74161  1  0  0  0  0
 75 76  1  0  0  0  0
 75162  1  0  0  0  0
 75163  1  0  0  0  0
 76 78  1  0  0  0  0
 76164  1  0  0  0  0
 77 78  1  0  0  0  0
 77 79  1  6  0  0  0
 77165  1  0  0  0  0
 78166  1  0  0  0  0
 79167  1  0  0  0  0
 79168  1  0  0  0  0
 79169  1  0  0  0  0
 80 81  1  0  0  0  0
 80170  1  0  0  0  0
 81 83  1  0  0  0  0
 81171  1  0  0  0  0
 81172  1  0  0  0  0
 82173  1  0  0  0  0
 82174  1  0  0  0  0
 82175  1  0  0  0  0
 83 84  1  0  0  0  0
 83176  1  0  0  0  0
 84 85  1  0  0  0  0
 84177  1  0  0  0  0
 85 90  1  6  0  0  0
 85178  1  0  0  0  0
 86 87  1  0  0  0  0
 86179  1  0  0  0  0
 87 89  1  0  0  0  0
 87180  1  0  0  0  0
 88 89  1  0  0  0  0
 88 91  1  0  0  0  0
 88181  1  0  0  0  0
 89182  1  0  0  0  0
 90183  1  0  0  0  0
 90184  1  0  0  0  0
 90185  1  0  0  0  0
 91 93  1  1  0  0  0
 91186  1  0  0  0  0
 92 94  1  0  0  0  0
 92187  1  0  0  0  0
 93189  1  0  0  0  0
 93190  1  0  0  0  0
 94 95  1  0  0  0  0
 94188  1  0  0  0  0
 95 96  1  0  0  0  0
 95191  1  0  0  0  0
 96 97  1  0  0  0  0
 96192  1  0  0  0  0
 97 99  1  6  0  0  0
 97193  1  0  0  0  0
 98194  1  0  0  0  0
 98195  1  0  0  0  0
 98196  1  0  0  0  0
 99199  1  0  0  0  0
 99200  1  0  0  0  0
M  END
> <PUBCHEM_COMPOUND_CID>
76329539

> <PUBCHEM_COMPOUND_CANONICALIZED>
1

> <PUBCHEM_CACTVS_COMPLEXITY>
2760

> <PUBCHEM_CACTVS_HBOND_ACCEPTOR>
29

> <PUBCHEM_CACTVS_HBOND_DONOR>
10

> <PUBCHEM_CACTVS_ROTATABLE_BOND>
23

> <PUBCHEM_CACTVS_SUBSKEYS>
AAADcfB8PgAAAAAAAAAAAAAAAAAAAYAAAAA0aNEiQAAAAGCBAAAAGgAACAAAD1SwmAMyCIAABgCIAqDSCAICAAAgAAAIiAFAAMgZNDKAMRCicAAlwAAPqYfK7PzPgAAAAAAAAADCAAYQADCAAYQADAAAAA==

> <PUBCHEM_IUPAC_OPENEYE_NAME>
[(3S,8S,9R,10R,12R,13S,14R,17R)-17-acetyl-3-[(2R,4S,5R,6R)-5-[(2S,4S,5R,6S)-5-[(2S,4S,5R,6R)-5-[(2S,4R,5S,6S)-5-[(2S,3R,4R,5S,6R)-3,4-dihydroxy-6-(hydroxymethyl)-5-[(2S,3R,4S,5S,6R)-3,4,5-trihydroxy-6-(hydroxymethyl)tetrahydropyran-2-yl]oxy-tetrahydropyran-2-yl]oxy-4-methoxy-6-methyl-tetrahydropyran-2-yl]oxy-4-methoxy-6-methyl-tetrahydropyran-2-yl]oxy-4-methoxy-6-methyl-tetrahydropyran-2-yl]oxy-4-methoxy-6-methyl-tetrahydropyran-2-yl]oxy-8,14,17-trihydroxy-10,13-dimethyl-1,2,3,4,7,9,11,12,15,16-decahydrocyclopenta[a]phenanthren-12-yl] (E)-3-phenylprop-2-enoate

> <PUBCHEM_IUPAC_CAS_NAME>
(E)-3-phenyl-2-propenoic acid [(3S,8S,9R,10R,12R,13S,14R,17R)-17-acetyl-3-[[(2R,4S,5R,6R)-5-[[(2S,4S,5R,6S)-5-[[(2S,4S,5R,6R)-5-[[(2S,4R,5S,6S)-5-[[(2S,3R,4R,5S,6R)-3,4-dihydroxy-6-(hydroxymethyl)-5-[[(2S,3R,4S,5S,6R)-3,4,5-trihydroxy-6-(hydroxymethyl)-2-oxanyl]oxy]-2-oxanyl]oxy]-4-methoxy-6-methyl-2-oxanyl]oxy]-4-methoxy-6-methyl-2-oxanyl]oxy]-4-methoxy-6-methyl-2-oxanyl]oxy]-4-methoxy-6-methyl-2-oxanyl]oxy]-8,14,17-trihydroxy-10,13-dimethyl-1,2,3,4,7,9,11,12,15,16-decahydrocyclopenta[a]phenanthren-12-yl] ester

> <PUBCHEM_IUPAC_NAME_MARKUP>
[(3<I>S</I>,8<I>S</I>,9<I>R</I>,10<I>R</I>,12<I>R</I>,13<I>S</I>,14<I>R</I>,17<I>R</I>)-17-acetyl-3-[(2<I>R</I>,4<I>S</I>,5<I>R</I>,6<I>R</I>)-5-[(2<I>S</I>,4<I>S</I>,5<I>R</I>,6<I>S</I>)-5-[(2<I>S</I>,4<I>S</I>,5<I>R</I>,6<I>R</I>)-5-[(2<I>S</I>,4<I>R</I>,5<I>S</I>,6<I>S</I>)-5-[(2<I>S</I>,3<I>R</I>,4<I>R</I>,5<I>S</I>,6<I>R</I>)-3,4-dihydroxy-6-(hydroxymethyl)-5-[(2<I>S</I>,3<I>R</I>,4<I>S</I>,5<I>S</I>,6<I>R</I>)-3,4,5-trihydroxy-6-(hydroxymethyl)oxan-2-yl]oxyoxan-2-yl]oxy-4-methoxy-6-methyloxan-2-yl]oxy-4-methoxy-6-methyloxan-2-yl]oxy-4-methoxy-6-methyloxan-2-yl]oxy-4-methoxy-6-methyloxan-2-yl]oxy-8,14,17-trihydroxy-10,13-dimethyl-1,2,3,4,7,9,11,12,15,16-decahydrocyclopenta[a]phenanthren-12-yl] (<I>E</I>)-3-phenylprop-2-enoate

> <PUBCHEM_IUPAC_NAME>
[(3S,8S,9R,10R,12R,13S,14R,17R)-17-acetyl-3-[(2R,4S,5R,6R)-5-[(2S,4S,5R,6S)-5-[(2S,4S,5R,6R)-5-[(2S,4R,5S,6S)-5-[(2S,3R,4R,5S,6R)-3,4-dihydroxy-6-(hydroxymethyl)-5-[(2S,3R,4S,5S,6R)-3,4,5-trihydroxy-6-(hydroxymethyl)oxan-2-yl]oxyoxan-2-yl]oxy-4-methoxy-6-methyloxan-2-yl]oxy-4-methoxy-6-methyloxan-2-yl]oxy-4-methoxy-6-methyloxan-2-yl]oxy-4-methoxy-6-methyloxan-2-yl]oxy-8,14,17-trihydroxy-10,13-dimethyl-1,2,3,4,7,9,11,12,15,16-decahydrocyclopenta[a]phenanthren-12-yl] (E)-3-phenylprop-2-enoate

> <PUBCHEM_IUPAC_SYSTEMATIC_NAME>
[(3S,8S,9R,10R,12R,13S,14R,17R)-17-ethanoyl-3-[(2R,4S,5R,6R)-5-[(2S,4S,5R,6S)-5-[(2S,4S,5R,6R)-5-[(2S,4R,5S,6S)-5-[(2S,3R,4R,5S,6R)-6-(hydroxymethyl)-5-[(2S,3R,4S,5S,6R)-6-(hydroxymethyl)-3,4,5-tris(oxidanyl)oxan-2-yl]oxy-3,4-bis(oxidanyl)oxan-2-yl]oxy-4-methoxy-6-methyl-oxan-2-yl]oxy-4-methoxy-6-methyl-oxan-2-yl]oxy-4-methoxy-6-methyl-oxan-2-yl]oxy-4-methoxy-6-methyl-oxan-2-yl]oxy-10,13-dimethyl-8,14,17-tris(oxidanyl)-1,2,3,4,7,9,11,12,15,16-decahydrocyclopenta[a]phenanthren-12-yl] (E)-3-phenylprop-2-enoate

> <PUBCHEM_IUPAC_TRADITIONAL_NAME>
(E)-3-phenylacrylic acid [(3S,8S,9R,10R,12R,13S,14R,17R)-17-acetyl-3-[(2R,4S,5R,6R)-5-[(2S,4S,5R,6S)-5-[(2S,4S,5R,6R)-5-[(2S,4R,5S,6S)-5-[(2S,3R,4R,5S,6R)-3,4-dihydroxy-6-methylol-5-[(2S,3R,4S,5S,6R)-3,4,5-trihydroxy-6-methylol-tetrahydropyran-2-yl]oxy-tetrahydropyran-2-yl]oxy-4-methoxy-6-methyl-tetrahydropyran-2-yl]oxy-4-methoxy-6-methyl-tetrahydropyran-2-yl]oxy-4-methoxy-6-methyl-tetrahydropyran-2-yl]oxy-4-methoxy-6-methyl-tetrahydropyran-2-yl]oxy-8,14,17-trihydroxy-10,13-dimethyl-1,2,3,4,7,9,11,12,15,16-decahydrocyclopenta[a]phenanthren-12-yl] ester

> <PUBCHEM_IUPAC_INCHI>
InChI=1S/C70H106O29/c1-33-59(41(83-8)26-50(87-33)91-40-20-21-66(6)39(25-40)19-22-69(81)47(66)30-48(94-49(74)18-17-38-15-13-12-14-16-38)67(7)68(80,37(5)73)23-24-70(67,69)82)95-51-27-42(84-9)60(34(2)88-51)96-52-28-43(85-10)61(35(3)89-52)97-53-29-44(86-11)62(36(4)90-53)98-65-58(79)56(77)63(46(32-72)93-65)99-64-57(78)55(76)54(75)45(31-71)92-64/h12-19,33-36,40-48,50-65,71-72,75-82H,20-32H2,1-11H3/b18-17+/t33-,34+,35-,36+,40+,41+,42+,43+,44-,45-,46-,47-,48-,50+,51+,52+,53+,54-,55+,56-,57-,58-,59-,60-,61-,62+,63-,64+,65+,66+,67-,68+,69+,70-/m1/s1

> <PUBCHEM_IUPAC_INCHIKEY>
AMKYBDCDBVYPOL-NSLQVSGISA-N

> <PUBCHEM_XLOGP3_AA>
0.2

> <PUBCHEM_EXACT_MASS>
1410.681977

> <PUBCHEM_MOLECULAR_FORMULA>
C70H106O29

> <PUBCHEM_MOLECULAR_WEIGHT>
1411.6

> <PUBCHEM_OPENEYE_CAN_SMILES>
CC1C(C(CC(O1)OC2CCC3(C4CC(C5(C(CCC5(C4(CC=C3C2)O)O)(C(=O)C)O)C)OC(=O)C=CC6=CC=CC=C6)C)OC)OC7CC(C(C(O7)C)OC8CC(C(C(O8)C)OC9CC(C(C(O9)C)OC1C(C(C(C(O1)CO)OC1C(C(C(C(O1)CO)O)O)O)O)O)OC)OC)OC

> <PUBCHEM_OPENEYE_ISO_SMILES>
C[C@@H]1[C@H]([C@H](C[C@@H](O1)O[C@H]2CC[C@@]3([C@H]4C[C@H]([C@@]5([C@](CC[C@@]5([C@@]4(CC=C3C2)O)O)(C(=O)C)O)C)OC(=O)/C=C/C6=CC=CC=C6)C)OC)O[C@H]7C[C@@H]([C@@H]([C@@H](O7)C)O[C@H]8C[C@@H]([C@@H]([C@H](O8)C)O[C@H]9C[C@H]([C@H]([C@@H](O9)C)O[C@H]1[C@@H]([C@H]([C@@H]([C@H](O1)CO)O[C@H]1[C@@H]([C@H]([C@@H]([C@H](O1)CO)O)O)O)O)O)OC)OC)OC

> <PUBCHEM_CACTVS_TPSA>
393

> <PUBCHEM_MONOISOTOPIC_WEIGHT>
1410.681977

> <PUBCHEM_TOTAL_CHARGE>
0

> <PUBCHEM_HEAVY_ATOM_COUNT>
99

> <PUBCHEM_ATOM_DEF_STEREO_COUNT>
34

> <PUBCHEM_ATOM_UDEF_STEREO_COUNT>
0

> <PUBCHEM_BOND_DEF_STEREO_COUNT>
1

> <PUBCHEM_BOND_UDEF_STEREO_COUNT>
0

> <PUBCHEM_ISOTOPIC_ATOM_COUNT>
0

> <PUBCHEM_COMPONENT_COUNT>
1

> <PUBCHEM_CACTVS_TAUTO_COUNT>
-1

> <PUBCHEM_COORDINATE_TYPE>
1
5
255

> <PUBCHEM_BONDANNOTATIONS>
30  1  5
58  10  6
61  10  5
68  12  6
70  13  6
73  13  6
76  15  5
78  16  5
80  16  5
84  18  5
86  18  5
83  19  5
32  2  5
88  21  6
92  21  6
87  22  6
89  23  5
94  25  5
95  27  6
96  28  5
35  3  5
31  41  5
33  100  6
36  45  5
34  4  6
49  5  5
52  5  5
56  59  5
60  63  8
60  64  8
63  66  8
64  67  8
66  71  8
67  71  8
69  72  6
77  79  6
85  90  6
55  9  6
91  93  5
97  99  6

$$$$
