102165350
  -OEChem-09022014062D

135142  0     1  0  0  0  0  0999 V2000
   18.6600   -2.8024    0.0000 O   0  0  0  0  0  0  0  0  0  0  0  0
   18.0960   -3.1309    0.0000 O   0  0  0  0  0  0  0  0  0  0  0  0
   17.4387    0.6326    0.0000 O   0  0  0  0  0  0  0  0  0  0  0  0
   18.9445    0.3947    0.0000 O   0  0  0  0  0  0  0  0  0  0  0  0
   12.9292   -3.9372    0.0000 O   0  0  0  0  0  0  0  0  0  0  0  0
   19.9567    1.0281    0.0000 O   0  0  0  0  0  0  0  0  0  0  0  0
   15.7067    0.6259    0.0000 O   0  0  0  0  0  0  0  0  0  0  0  0
   11.1972   -3.9372    0.0000 O   0  0  0  0  0  0  0  0  0  0  0  0
   11.1972   -0.9372    0.0000 O   0  0  0  0  0  0  0  0  0  0  0  0
    9.4651   -1.9372    0.0000 O   0  0  0  0  0  0  0  0  0  0  0  0
   16.5554    5.1292    0.0000 O   0  0  0  0  0  0  0  0  0  0  0  0
    7.7331   -1.9372    0.0000 O   0  0  0  0  0  0  0  0  0  0  0  0
    7.7331   -4.9372    0.0000 O   0  0  0  0  0  0  0  0  0  0  0  0
    6.0010   -3.9372    0.0000 O   0  0  0  0  0  0  0  0  0  0  0  0
    4.2690   -3.9372    0.0000 O   0  0  0  0  0  0  0  0  0  0  0  0
    4.2690   -0.9372    0.0000 O   0  0  0  0  0  0  0  0  0  0  0  0
    2.5369   -1.9372    0.0000 O   0  0  0  0  0  0  0  0  0  0  0  0
   18.3144   -1.8640    0.0000 C   0  0  2  0  0  0  0  0  0  0  0  0
   18.3105   -0.8641    0.0000 C   0  0  2  0  0  0  0  0  0  0  0  0
   17.4503   -2.3674    0.0000 C   0  0  2  0  0  0  0  0  0  0  0  0
   16.5823   -1.8707    0.0000 C   0  0  1  0  0  0  0  0  0  0  0  0
   17.4426   -0.3674    0.0000 C   0  0  1  0  0  0  0  0  0  0  0  0
   19.2556   -0.5557    0.0000 C   0  0  2  0  0  0  0  0  0  0  0  0
   15.6743   -2.3811    0.0000 C   0  0  2  0  0  0  0  0  0  0  0  0
   16.5785   -0.8707    0.0000 C   0  0  0  0  0  0  0  0  0  0  0  0
   19.2618   -2.1651    0.0000 C   0  0  0  0  0  0  0  0  0  0  0  0
   19.8423   -1.3582    0.0000 C   0  0  0  0  0  0  0  0  0  0  0  0
   17.4704   -3.4088    0.0000 C   0  0  0  0  0  0  0  0  0  0  0  0
   18.3067    0.1359    0.0000 C   0  0  0  0  0  0  0  0  0  0  0  0
   15.6703   -3.4227    0.0000 C   0  0  0  0  0  0  0  0  0  0  0  0
   14.7453   -1.8206    0.0000 C   0  0  0  0  0  0  0  0  0  0  0  0
   16.5744   -3.9400    0.0000 C   0  0  0  0  0  0  0  0  0  0  0  0
   15.6782   -1.3811    0.0000 C   0  0  0  0  0  0  0  0  0  0  0  0
   20.0633    0.0338    0.0000 C   0  0  0  0  0  0  0  0  0  0  0  0
   14.7370   -3.9760    0.0000 C   0  0  0  0  0  0  0  0  0  0  0  0
   13.7994   -2.3522    0.0000 C   0  0  0  0  0  0  0  0  0  0  0  0
   13.7953   -3.4372    0.0000 C   0  0  2  0  0  0  0  0  0  0  0  0
   20.9777   -0.3710    0.0000 C   0  0  0  0  0  0  0  0  0  0  0  0
   16.5708    1.1292    0.0000 C   0  0  0  0  0  0  0  0  0  0  0  0
   12.0632   -3.4372    0.0000 C   0  0  2  0  0  0  0  0  0  0  0  0
   16.5669    2.1292    0.0000 C   0  0  0  0  0  0  0  0  0  0  0  0
   12.0632   -2.4372    0.0000 C   0  0  0  0  0  0  0  0  0  0  0  0
   11.1972   -1.9372    0.0000 C   0  0  1  0  0  0  0  0  0  0  0  0
   15.6990    2.6259    0.0000 C   0  0  0  0  0  0  0  0  0  0  0  0
   17.4310    2.6326    0.0000 C   0  0  0  0  0  0  0  0  0  0  0  0
   10.3312   -3.4372    0.0000 C   0  0  1  0  0  0  0  0  0  0  0  0
   10.3312   -2.4372    0.0000 C   0  0  1  0  0  0  0  0  0  0  0  0
   15.6951    3.6259    0.0000 C   0  0  0  0  0  0  0  0  0  0  0  0
   17.4272    3.6326    0.0000 C   0  0  0  0  0  0  0  0  0  0  0  0
    9.4651   -3.9372    0.0000 C   0  0  0  0  0  0  0  0  0  0  0  0
   16.5592    4.1292    0.0000 C   0  0  0  0  0  0  0  0  0  0  0  0
    8.5991   -2.4372    0.0000 C   0  0  2  0  0  0  0  0  0  0  0  0
    8.5991   -3.4372    0.0000 C   0  0  0  0  0  0  0  0  0  0  0  0
    7.7331   -3.9372    0.0000 C   0  0  2  0  0  0  0  0  0  0  0  0
    6.8671   -2.4372    0.0000 C   0  0  1  0  0  0  0  0  0  0  0  0
    6.8671   -3.4372    0.0000 C   0  0  1  0  0  0  0  0  0  0  0  0
    6.0010   -1.9372    0.0000 C   0  0  0  0  0  0  0  0  0  0  0  0
    5.1350   -3.4372    0.0000 C   0  0  2  0  0  0  0  0  0  0  0  0
    5.1350   -2.4372    0.0000 C   0  0  0  0  0  0  0  0  0  0  0  0
    8.5991   -5.4372    0.0000 C   0  0  0  0  0  0  0  0  0  0  0  0
    4.2690   -1.9372    0.0000 C   0  0  2  0  0  0  0  0  0  0  0  0
    3.4030   -3.4372    0.0000 C   0  0  2  0  0  0  0  0  0  0  0  0
    3.4030   -2.4372    0.0000 C   0  0  2  0  0  0  0  0  0  0  0  0
    2.5369   -3.9372    0.0000 C   0  0  0  0  0  0  0  0  0  0  0  0
    3.4030   -0.4372    0.0000 C   0  0  0  0  0  0  0  0  0  0  0  0
   17.3168   -1.4429    0.0000 H   0  0  0  0  0  0  0  0  0  0  0  0
   16.9044   -0.0595    0.0000 H   0  0  0  0  0  0  0  0  0  0  0  0
   16.3642   -0.2889    0.0000 H   0  0  0  0  0  0  0  0  0  0  0  0
   15.9683   -0.9807    0.0000 H   0  0  0  0  0  0  0  0  0  0  0  0
   19.0129   -2.7330    0.0000 H   0  0  0  0  0  0  0  0  0  0  0  0
   19.8003   -2.4723    0.0000 H   0  0  0  0  0  0  0  0  0  0  0  0
   20.3047   -1.7711    0.0000 H   0  0  0  0  0  0  0  0  0  0  0  0
   20.3015   -0.9417    0.0000 H   0  0  0  0  0  0  0  0  0  0  0  0
   17.6906   -3.9884    0.0000 H   0  0  0  0  0  0  0  0  0  0  0  0
   18.0791   -3.2910    0.0000 H   0  0  0  0  0  0  0  0  0  0  0  0
   18.9267    0.1383    0.0000 H   0  0  0  0  0  0  0  0  0  0  0  0
   18.3043    0.7559    0.0000 H   0  0  0  0  0  0  0  0  0  0  0  0
   17.6867    0.1335    0.0000 H   0  0  0  0  0  0  0  0  0  0  0  0
   15.1517   -1.3523    0.0000 H   0  0  0  0  0  0  0  0  0  0  0  0
   14.3535   -1.3400    0.0000 H   0  0  0  0  0  0  0  0  0  0  0  0
   16.5791   -4.5600    0.0000 H   0  0  0  0  0  0  0  0  0  0  0  0
   19.2710   -2.9077    0.0000 H   0  0  0  0  0  0  0  0  0  0  0  0
   16.2981   -1.3835    0.0000 H   0  0  0  0  0  0  0  0  0  0  0  0
   15.6805   -0.7611    0.0000 H   0  0  0  0  0  0  0  0  0  0  0  0
   15.0582   -1.3787    0.0000 H   0  0  0  0  0  0  0  0  0  0  0  0
   18.2061   -3.7411    0.0000 H   0  0  0  0  0  0  0  0  0  0  0  0
   14.3415   -4.4535    0.0000 H   0  0  0  0  0  0  0  0  0  0  0  0
   15.1398   -4.4474    0.0000 H   0  0  0  0  0  0  0  0  0  0  0  0
   13.5926   -1.7677    0.0000 H   0  0  0  0  0  0  0  0  0  0  0  0
   13.1882   -2.4559    0.0000 H   0  0  0  0  0  0  0  0  0  0  0  0
   13.2589   -3.1261    0.0000 H   0  0  0  0  0  0  0  0  0  0  0  0
   19.3584    0.8564    0.0000 H   0  0  0  0  0  0  0  0  0  0  0  0
   20.7268   -0.9379    0.0000 H   0  0  0  0  0  0  0  0  0  0  0  0
   21.5447   -0.6219    0.0000 H   0  0  0  0  0  0  0  0  0  0  0  0
   21.2287    0.1960    0.0000 H   0  0  0  0  0  0  0  0  0  0  0  0
   12.0632   -4.0572    0.0000 H   0  0  0  0  0  0  0  0  0  0  0  0
   12.6738   -2.5448    0.0000 H   0  0  0  0  0  0  0  0  0  0  0  0
   12.2753   -1.8545    0.0000 H   0  0  0  0  0  0  0  0  0  0  0  0
   11.7341   -1.6272    0.0000 H   0  0  0  0  0  0  0  0  0  0  0  0
   15.1632    2.3138    0.0000 H   0  0  0  0  0  0  0  0  0  0  0  0
   17.9691    2.3246    0.0000 H   0  0  0  0  0  0  0  0  0  0  0  0
   10.3312   -4.0572    0.0000 H   0  0  0  0  0  0  0  0  0  0  0  0
    9.7942   -2.7472    0.0000 H   0  0  0  0  0  0  0  0  0  0  0  0
   15.1570    3.9338    0.0000 H   0  0  0  0  0  0  0  0  0  0  0  0
   17.9629    3.9446    0.0000 H   0  0  0  0  0  0  0  0  0  0  0  0
    9.1551   -3.4002    0.0000 H   0  0  0  0  0  0  0  0  0  0  0  0
    8.9282   -4.2472    0.0000 H   0  0  0  0  0  0  0  0  0  0  0  0
    9.7751   -4.4741    0.0000 H   0  0  0  0  0  0  0  0  0  0  0  0
   11.7341   -0.6272    0.0000 H   0  0  0  0  0  0  0  0  0  0  0  0
    8.5991   -1.8172    0.0000 H   0  0  0  0  0  0  0  0  0  0  0  0
    8.8112   -4.0198    0.0000 H   0  0  0  0  0  0  0  0  0  0  0  0
    9.2097   -3.3295    0.0000 H   0  0  0  0  0  0  0  0  0  0  0  0
   16.0172    5.4372    0.0000 H   0  0  0  0  0  0  0  0  0  0  0  0
    8.2700   -4.2472    0.0000 H   0  0  0  0  0  0  0  0  0  0  0  0
    6.8671   -1.8172    0.0000 H   0  0  0  0  0  0  0  0  0  0  0  0
    6.3301   -3.1272    0.0000 H   0  0  0  0  0  0  0  0  0  0  0  0
    6.3110   -1.4002    0.0000 H   0  0  0  0  0  0  0  0  0  0  0  0
    5.4641   -1.6272    0.0000 H   0  0  0  0  0  0  0  0  0  0  0  0
    5.6910   -2.4741    0.0000 H   0  0  0  0  0  0  0  0  0  0  0  0
    5.1350   -4.0572    0.0000 H   0  0  0  0  0  0  0  0  0  0  0  0
    5.7456   -2.5448    0.0000 H   0  0  0  0  0  0  0  0  0  0  0  0
    5.3471   -1.8545    0.0000 H   0  0  0  0  0  0  0  0  0  0  0  0
    8.2891   -5.9741    0.0000 H   0  0  0  0  0  0  0  0  0  0  0  0
    9.1360   -5.7472    0.0000 H   0  0  0  0  0  0  0  0  0  0  0  0
    8.9091   -4.9002    0.0000 H   0  0  0  0  0  0  0  0  0  0  0  0
    4.8059   -1.6272    0.0000 H   0  0  0  0  0  0  0  0  0  0  0  0
    3.4030   -1.8172    0.0000 H   0  0  0  0  0  0  0  0  0  0  0  0
    3.4030   -4.0572    0.0000 H   0  0  0  0  0  0  0  0  0  0  0  0
    2.2269   -3.4002    0.0000 H   0  0  0  0  0  0  0  0  0  0  0  0
    2.0000   -4.2472    0.0000 H   0  0  0  0  0  0  0  0  0  0  0  0
    2.8469   -4.4741    0.0000 H   0  0  0  0  0  0  0  0  0  0  0  0
    2.0000   -2.2472    0.0000 H   0  0  0  0  0  0  0  0  0  0  0  0
    3.7130    0.0998    0.0000 H   0  0  0  0  0  0  0  0  0  0  0  0
    2.8660   -0.1272    0.0000 H   0  0  0  0  0  0  0  0  0  0  0  0
    3.0930   -0.9741    0.0000 H   0  0  0  0  0  0  0  0  0  0  0  0
 18  1  1  1  0  0  0
  1 82  1  0  0  0  0
 20  2  1  1  0  0  0
  2 86  1  0  0  0  0
 22  3  1  1  0  0  0
  3 39  1  0  0  0  0
 23  4  1  1  0  0  0
  4 92  1  0  0  0  0
 37  5  1  1  0  0  0
 40  5  1  6  0  0  0
  6 34  2  0  0  0  0
  7 39  2  0  0  0  0
  8 40  1  0  0  0  0
  8 46  1  0  0  0  0
 43  9  1  1  0  0  0
  9109  1  0  0  0  0
 47 10  1  1  0  0  0
 52 10  1  1  0  0  0
 11 51  1  0  0  0  0
 11113  1  0  0  0  0
 12 52  1  0  0  0  0
 12 55  1  0  0  0  0
 54 13  1  1  0  0  0
 13 60  1  0  0  0  0
 56 14  1  6  0  0  0
 58 14  1  6  0  0  0
 15 58  1  0  0  0  0
 15 62  1  0  0  0  0
 61 16  1  6  0  0  0
 16 65  1  0  0  0  0
 63 17  1  6  0  0  0
 17132  1  0  0  0  0
 18 19  1  0  0  0  0
 18 20  1  0  0  0  0
 18 26  1  0  0  0  0
 19 22  1  0  0  0  0
 19 23  1  0  0  0  0
 19 29  1  1  0  0  0
 20 21  1  0  0  0  0
 20 28  1  0  0  0  0
 21 24  1  0  0  0  0
 21 25  1  0  0  0  0
 21 66  1  6  0  0  0
 22 25  1  0  0  0  0
 22 67  1  0  0  0  0
 23 27  1  0  0  0  0
 23 34  1  0  0  0  0
 24 30  1  0  0  0  0
 24 31  1  0  0  0  0
 24 33  1  1  0  0  0
 25 68  1  0  0  0  0
 25 69  1  0  0  0  0
 26 27  1  0  0  0  0
 26 70  1  0  0  0  0
 26 71  1  0  0  0  0
 27 72  1  0  0  0  0
 27 73  1  0  0  0  0
 28 32  1  0  0  0  0
 28 74  1  0  0  0  0
 28 75  1  0  0  0  0
 29 76  1  0  0  0  0
 29 77  1  0  0  0  0
 29 78  1  0  0  0  0
 30 32  2  0  0  0  0
 30 35  1  0  0  0  0
 31 36  1  0  0  0  0
 31 79  1  0  0  0  0
 31 80  1  0  0  0  0
 32 81  1  0  0  0  0
 33 83  1  0  0  0  0
 33 84  1  0  0  0  0
 33 85  1  0  0  0  0
 34 38  1  0  0  0  0
 35 37  1  0  0  0  0
 35 87  1  0  0  0  0
 35 88  1  0  0  0  0
 36 37  1  0  0  0  0
 36 89  1  0  0  0  0
 36 90  1  0  0  0  0
 37 91  1  0  0  0  0
 38 93  1  0  0  0  0
 38 94  1  0  0  0  0
 38 95  1  0  0  0  0
 39 41  1  0  0  0  0
 40 42  1  0  0  0  0
 40 96  1  0  0  0  0
 41 44  2  0  0  0  0
 41 45  1  0  0  0  0
 42 43  1  0  0  0  0
 42 97  1  0  0  0  0
 42 98  1  0  0  0  0
 43 47  1  0  0  0  0
 43 99  1  0  0  0  0
 44 48  1  0  0  0  0
 44100  1  0  0  0  0
 45 49  2  0  0  0  0
 45101  1  0  0  0  0
 46 47  1  0  0  0  0
 46 50  1  6  0  0  0
 46102  1  0  0  0  0
 47103  1  0  0  0  0
 48 51  2  0  0  0  0
 48104  1  0  0  0  0
 49 51  1  0  0  0  0
 49105  1  0  0  0  0
 50106  1  0  0  0  0
 50107  1  0  0  0  0
 50108  1  0  0  0  0
 52 53  1  0  0  0  0
 52110  1  0  0  0  0
 53 54  1  0  0  0  0
 53111  1  0  0  0  0
 53112  1  0  0  0  0
 54 56  1  0  0  0  0
 54114  1  0  0  0  0
 55 56  1  0  0  0  0
 55 57  1  1  0  0  0
 55115  1  0  0  0  0
 56116  1  0  0  0  0
 57117  1  0  0  0  0
 57118  1  0  0  0  0
 57119  1  0  0  0  0
 58 59  1  0  0  0  0
 58120  1  0  0  0  0
 59 61  1  0  0  0  0
 59121  1  0  0  0  0
 59122  1  0  0  0  0
 60123  1  0  0  0  0
 60124  1  0  0  0  0
 60125  1  0  0  0  0
 61 63  1  0  0  0  0
 61126  1  0  0  0  0
 62 63  1  0  0  0  0
 62 64  1  1  0  0  0
 62128  1  0  0  0  0
 63127  1  0  0  0  0
 64129  1  0  0  0  0
 64130  1  0  0  0  0
 64131  1  0  0  0  0
 65133  1  0  0  0  0
 65134  1  0  0  0  0
 65135  1  0  0  0  0
M  END
> <PUBCHEM_COMPOUND_CID>
102165350

> <PUBCHEM_COMPOUND_CANONICALIZED>
1

> <PUBCHEM_CACTVS_COMPLEXITY>
1760

> <PUBCHEM_CACTVS_HBOND_ACCEPTOR>
17

> <PUBCHEM_CACTVS_HBOND_DONOR>
6

> <PUBCHEM_CACTVS_ROTATABLE_BOND>
12

> <PUBCHEM_CACTVS_SUBSKEYS>
AAADcfB8PgAAAAAAAAAAAAAAAAAAAYAAAAA0aNECAAAAAGCBAAAAGgAACAAAD1SwmAMyDoAABgCIAqDSCAICAAAkIAAIiAFGCMgZNjKCNRqicQAlwBEPuYfK7PzPoAAAAAAAAADCAAYQADCAAYQADAAAAA==

> <PUBCHEM_IUPAC_OPENEYE_NAME>
[(3S,8S,9R,10R,12R,13S,14R,17S)-17-acetyl-8,14,17-trihydroxy-3-[(2R,4S,5S,6R)-4-hydroxy-5-[(2S,4R,5R,6R)-5-[(2S,4R,5S,6S)-5-hydroxy-4-methoxy-6-methyl-tetrahydropyran-2-yl]oxy-4-methoxy-6-methyl-tetrahydropyran-2-yl]oxy-6-methyl-tetrahydropyran-2-yl]oxy-10,13-dimethyl-1,2,3,4,7,9,11,12,15,16-decahydrocyclopenta[a]phenanthren-12-yl] 4-hydroxybenzoate

> <PUBCHEM_IUPAC_CAS_NAME>
4-hydroxybenzoic acid [(3S,8S,9R,10R,12R,13S,14R,17S)-17-acetyl-8,14,17-trihydroxy-3-[[(2R,4S,5S,6R)-4-hydroxy-5-[[(2S,4R,5R,6R)-5-[[(2S,4R,5S,6S)-5-hydroxy-4-methoxy-6-methyl-2-oxanyl]oxy]-4-methoxy-6-methyl-2-oxanyl]oxy]-6-methyl-2-oxanyl]oxy]-10,13-dimethyl-1,2,3,4,7,9,11,12,15,16-decahydrocyclopenta[a]phenanthren-12-yl] ester

> <PUBCHEM_IUPAC_NAME_MARKUP>
[(3<I>S</I>,8<I>S</I>,9<I>R</I>,10<I>R</I>,12<I>R</I>,13<I>S</I>,14<I>R</I>,17<I>S</I>)-17-acetyl-8,14,17-trihydroxy-3-[(2<I>R</I>,4<I>S</I>,5<I>S</I>,6<I>R</I>)-4-hydroxy-5-[(2<I>S</I>,4<I>R</I>,5<I>R</I>,6<I>R</I>)-5-[(2<I>S</I>,4<I>R</I>,5<I>S</I>,6<I>S</I>)-5-hydroxy-4-methoxy-6-methyloxan-2-yl]oxy-4-methoxy-6-methyloxan-2-yl]oxy-6-methyloxan-2-yl]oxy-10,13-dimethyl-1,2,3,4,7,9,11,12,15,16-decahydrocyclopenta[a]phenanthren-12-yl] 4-hydroxybenzoate

> <PUBCHEM_IUPAC_NAME>
[(3S,8S,9R,10R,12R,13S,14R,17S)-17-acetyl-8,14,17-trihydroxy-3-[(2R,4S,5S,6R)-4-hydroxy-5-[(2S,4R,5R,6R)-5-[(2S,4R,5S,6S)-5-hydroxy-4-methoxy-6-methyloxan-2-yl]oxy-4-methoxy-6-methyloxan-2-yl]oxy-6-methyloxan-2-yl]oxy-10,13-dimethyl-1,2,3,4,7,9,11,12,15,16-decahydrocyclopenta[a]phenanthren-12-yl] 4-hydroxybenzoate

> <PUBCHEM_IUPAC_SYSTEMATIC_NAME>
[(3S,8S,9R,10R,12R,13S,14R,17S)-17-ethanoyl-3-[(2R,4S,5S,6R)-5-[(2S,4R,5R,6R)-4-methoxy-5-[(2S,4R,5S,6S)-4-methoxy-6-methyl-5-oxidanyl-oxan-2-yl]oxy-6-methyl-oxan-2-yl]oxy-6-methyl-4-oxidanyl-oxan-2-yl]oxy-10,13-dimethyl-8,14,17-tris(oxidanyl)-1,2,3,4,7,9,11,12,15,16-decahydrocyclopenta[a]phenanthren-12-yl] 4-oxidanylbenzoate

> <PUBCHEM_IUPAC_TRADITIONAL_NAME>
4-hydroxybenzoic acid [(3S,8S,9R,10R,12R,13S,14R,17S)-17-acetyl-8,14,17-trihydroxy-3-[(2R,4S,5S,6R)-4-hydroxy-5-[(2S,4R,5R,6R)-5-[(2S,4R,5S,6S)-5-hydroxy-4-methoxy-6-methyl-tetrahydropyran-2-yl]oxy-4-methoxy-6-methyl-tetrahydropyran-2-yl]oxy-6-methyl-tetrahydropyran-2-yl]oxy-10,13-dimethyl-1,2,3,4,7,9,11,12,15,16-decahydrocyclopenta[a]phenanthren-12-yl] ester

> <PUBCHEM_IUPAC_INCHI>
InChI=1S/C48H70O17/c1-24-40(52)33(57-7)21-38(59-24)65-42-26(3)61-39(22-34(42)58-8)64-41-25(2)60-37(20-32(41)51)62-31-14-15-44(5)29(19-31)13-16-47(55)35(44)23-36(63-43(53)28-9-11-30(50)12-10-28)45(6)46(54,27(4)49)17-18-48(45,47)56/h9-13,24-26,31-42,50-52,54-56H,14-23H2,1-8H3/t24-,25+,26+,31-,32-,33+,34+,35+,36+,37-,38-,39-,40-,41+,42+,44-,45+,46+,47-,48+/m0/s1

> <PUBCHEM_IUPAC_INCHIKEY>
NMHNNGLQZHGFFA-FRCLPOJLSA-N

> <PUBCHEM_XLOGP3_AA>
2.2

> <PUBCHEM_EXACT_MASS>
918.461301

> <PUBCHEM_MOLECULAR_FORMULA>
C48H70O17

> <PUBCHEM_MOLECULAR_WEIGHT>
919.1

> <PUBCHEM_OPENEYE_CAN_SMILES>
CC1C(C(CC(O1)OC2C(OC(CC2OC)OC3C(OC(CC3O)OC4CCC5(C6CC(C7(C(CCC7(C6(CC=C5C4)O)O)(C(=O)C)O)C)OC(=O)C8=CC=C(C=C8)O)C)C)C)OC)O

> <PUBCHEM_OPENEYE_ISO_SMILES>
C[C@H]1[C@@H]([C@@H](C[C@@H](O1)O[C@@H]2[C@H](O[C@H](C[C@H]2OC)O[C@@H]3[C@H](O[C@H](C[C@@H]3O)O[C@H]4CC[C@@]5([C@H]6C[C@H]([C@@]7([C@@](CC[C@@]7([C@@]6(CC=C5C4)O)O)(C(=O)C)O)C)OC(=O)C8=CC=C(C=C8)O)C)C)C)OC)O

> <PUBCHEM_CACTVS_TPSA>
239

> <PUBCHEM_MONOISOTOPIC_WEIGHT>
918.461301

> <PUBCHEM_TOTAL_CHARGE>
0

> <PUBCHEM_HEAVY_ATOM_COUNT>
65

> <PUBCHEM_ATOM_DEF_STEREO_COUNT>
20

> <PUBCHEM_ATOM_UDEF_STEREO_COUNT>
0

> <PUBCHEM_BOND_DEF_STEREO_COUNT>
0

> <PUBCHEM_BOND_UDEF_STEREO_COUNT>
0

> <PUBCHEM_ISOTOPIC_ATOM_COUNT>
0

> <PUBCHEM_COMPONENT_COUNT>
1

> <PUBCHEM_CACTVS_TAUTO_COUNT>
-1

> <PUBCHEM_COORDINATE_TYPE>
1
5
255

> <PUBCHEM_BONDANNOTATIONS>
18  1  5
47  10  5
52  10  5
54  13  5
56  14  6
58  14  6
61  16  6
63  17  6
19  29  5
20  2  5
21  66  6
24  33  5
22  3  5
23  4  5
41  44  8
41  45  8
44  48  8
45  49  8
46  50  6
48  51  8
49  51  8
37  5  5
40  5  6
55  57  5
62  64  5
43  9  5

$$$$
