102029162
  -OEChem-09022012572D

143149  0     1  0  0  0  0  0999 V2000
   18.6600   -2.1484    0.0000 O   0  0  0  0  0  0  0  0  0  0  0  0
   18.0960   -2.4770    0.0000 O   0  0  0  0  0  0  0  0  0  0  0  0
   17.4387    1.2866    0.0000 O   0  0  0  0  0  0  0  0  0  0  0  0
   18.9445    1.0487    0.0000 O   0  0  0  0  0  0  0  0  0  0  0  0
   12.9292   -3.2832    0.0000 O   0  0  0  0  0  0  0  0  0  0  0  0
   19.9567    1.6821    0.0000 O   0  0  0  0  0  0  0  0  0  0  0  0
   15.7067    1.2799    0.0000 O   0  0  0  0  0  0  0  0  0  0  0  0
   11.1972   -3.2832    0.0000 O   0  0  0  0  0  0  0  0  0  0  0  0
   11.1972   -0.2832    0.0000 O   0  0  0  0  0  0  0  0  0  0  0  0
    9.4651   -1.2832    0.0000 O   0  0  0  0  0  0  0  0  0  0  0  0
    7.7331   -1.2832    0.0000 O   0  0  0  0  0  0  0  0  0  0  0  0
    7.7331   -4.2832    0.0000 O   0  0  0  0  0  0  0  0  0  0  0  0
    6.0010   -3.2832    0.0000 O   0  0  0  0  0  0  0  0  0  0  0  0
    4.2690   -3.2832    0.0000 O   0  0  0  0  0  0  0  0  0  0  0  0
    4.2690   -0.2832    0.0000 O   0  0  0  0  0  0  0  0  0  0  0  0
    2.5369   -1.2832    0.0000 O   0  0  0  0  0  0  0  0  0  0  0  0
   18.3144   -1.2101    0.0000 C   0  0  1  0  0  0  0  0  0  0  0  0
   18.3105   -0.2101    0.0000 C   0  0  2  0  0  0  0  0  0  0  0  0
   17.4503   -1.7134    0.0000 C   0  0  2  0  0  0  0  0  0  0  0  0
   16.5823   -1.2168    0.0000 C   0  0  1  0  0  0  0  0  0  0  0  0
   17.4426    0.2866    0.0000 C   0  0  1  0  0  0  0  0  0  0  0  0
   19.2556    0.0983    0.0000 C   0  0  2  0  0  0  0  0  0  0  0  0
   15.6743   -1.7271    0.0000 C   0  0  2  0  0  0  0  0  0  0  0  0
   16.5785   -0.2168    0.0000 C   0  0  0  0  0  0  0  0  0  0  0  0
   19.2618   -1.5112    0.0000 C   0  0  0  0  0  0  0  0  0  0  0  0
   19.8423   -0.7042    0.0000 C   0  0  0  0  0  0  0  0  0  0  0  0
   17.4704   -2.7549    0.0000 C   0  0  0  0  0  0  0  0  0  0  0  0
   18.3067    0.7899    0.0000 C   0  0  0  0  0  0  0  0  0  0  0  0
   15.6703   -2.7687    0.0000 C   0  0  0  0  0  0  0  0  0  0  0  0
   14.7453   -1.1666    0.0000 C   0  0  0  0  0  0  0  0  0  0  0  0
   16.5744   -3.2861    0.0000 C   0  0  0  0  0  0  0  0  0  0  0  0
   15.6782   -0.7271    0.0000 C   0  0  0  0  0  0  0  0  0  0  0  0
   20.0633    0.6878    0.0000 C   0  0  0  0  0  0  0  0  0  0  0  0
   14.7370   -3.3221    0.0000 C   0  0  0  0  0  0  0  0  0  0  0  0
   13.7994   -1.6982    0.0000 C   0  0  0  0  0  0  0  0  0  0  0  0
   13.7953   -2.7832    0.0000 C   0  0  2  0  0  0  0  0  0  0  0  0
   20.9777    0.2830    0.0000 C   0  0  0  0  0  0  0  0  0  0  0  0
   16.5708    1.7832    0.0000 C   0  0  0  0  0  0  0  0  0  0  0  0
   12.0632   -2.7832    0.0000 C   0  0  2  0  0  0  0  0  0  0  0  0
   16.5669    2.7832    0.0000 C   0  0  0  0  0  0  0  0  0  0  0  0
   12.0632   -1.7832    0.0000 C   0  0  0  0  0  0  0  0  0  0  0  0
   11.1972   -1.2832    0.0000 C   0  0  1  0  0  0  0  0  0  0  0  0
   15.6990    3.2799    0.0000 C   0  0  0  0  0  0  0  0  0  0  0  0
   10.3312   -2.7832    0.0000 C   0  0  1  0  0  0  0  0  0  0  0  0
   10.3312   -1.7832    0.0000 C   0  0  1  0  0  0  0  0  0  0  0  0
   15.6951    4.2799    0.0000 C   0  0  0  0  0  0  0  0  0  0  0  0
   14.8349    2.7765    0.0000 C   0  0  0  0  0  0  0  0  0  0  0  0
    9.4651   -3.2832    0.0000 C   0  0  0  0  0  0  0  0  0  0  0  0
   14.8272    4.7765    0.0000 C   0  0  0  0  0  0  0  0  0  0  0  0
   16.5592    4.7832    0.0000 C   0  0  0  0  0  0  0  0  0  0  0  0
    8.5991   -1.7832    0.0000 C   0  0  2  0  0  0  0  0  0  0  0  0
   12.0632    0.2168    0.0000 C   0  0  0  0  0  0  0  0  0  0  0  0
    8.5991   -2.7832    0.0000 C   0  0  0  0  0  0  0  0  0  0  0  0
    7.7331   -3.2832    0.0000 C   0  0  1  0  0  0  0  0  0  0  0  0
    6.8671   -1.7832    0.0000 C   0  0  2  0  0  0  0  0  0  0  0  0
    6.8671   -2.7832    0.0000 C   0  0  1  0  0  0  0  0  0  0  0  0
    6.0010   -1.2832    0.0000 C   0  0  0  0  0  0  0  0  0  0  0  0
    5.1350   -2.7832    0.0000 C   0  0  2  0  0  0  0  0  0  0  0  0
    8.5991   -4.7832    0.0000 C   0  0  0  0  0  0  0  0  0  0  0  0
    5.1350   -1.7832    0.0000 C   0  0  0  0  0  0  0  0  0  0  0  0
    4.2690   -1.2832    0.0000 C   0  0  1  0  0  0  0  0  0  0  0  0
    3.4030   -2.7832    0.0000 C   0  0  1  0  0  0  0  0  0  0  0  0
    3.4030   -1.7832    0.0000 C   0  0  1  0  0  0  0  0  0  0  0  0
    2.5369   -3.2832    0.0000 C   0  0  0  0  0  0  0  0  0  0  0  0
    3.4030    0.2168    0.0000 C   0  0  0  0  0  0  0  0  0  0  0  0
   17.3168   -0.7889    0.0000 H   0  0  0  0  0  0  0  0  0  0  0  0
   16.9044    0.5945    0.0000 H   0  0  0  0  0  0  0  0  0  0  0  0
   16.3642    0.3650    0.0000 H   0  0  0  0  0  0  0  0  0  0  0  0
   15.9683   -0.3268    0.0000 H   0  0  0  0  0  0  0  0  0  0  0  0
   19.0129   -2.0790    0.0000 H   0  0  0  0  0  0  0  0  0  0  0  0
   19.8003   -1.8183    0.0000 H   0  0  0  0  0  0  0  0  0  0  0  0
   20.3047   -1.1171    0.0000 H   0  0  0  0  0  0  0  0  0  0  0  0
   20.3015   -0.2877    0.0000 H   0  0  0  0  0  0  0  0  0  0  0  0
   17.6906   -3.3344    0.0000 H   0  0  0  0  0  0  0  0  0  0  0  0
   18.0791   -2.6370    0.0000 H   0  0  0  0  0  0  0  0  0  0  0  0
   18.9267    0.7923    0.0000 H   0  0  0  0  0  0  0  0  0  0  0  0
   18.3043    1.4099    0.0000 H   0  0  0  0  0  0  0  0  0  0  0  0
   17.6867    0.7875    0.0000 H   0  0  0  0  0  0  0  0  0  0  0  0
   15.1517   -0.6984    0.0000 H   0  0  0  0  0  0  0  0  0  0  0  0
   14.3535   -0.6861    0.0000 H   0  0  0  0  0  0  0  0  0  0  0  0
   16.5791   -3.9060    0.0000 H   0  0  0  0  0  0  0  0  0  0  0  0
   19.2710   -2.2538    0.0000 H   0  0  0  0  0  0  0  0  0  0  0  0
   16.2981   -0.7295    0.0000 H   0  0  0  0  0  0  0  0  0  0  0  0
   15.6805   -0.1071    0.0000 H   0  0  0  0  0  0  0  0  0  0  0  0
   15.0582   -0.7247    0.0000 H   0  0  0  0  0  0  0  0  0  0  0  0
   18.2061   -3.0871    0.0000 H   0  0  0  0  0  0  0  0  0  0  0  0
   14.3415   -3.7996    0.0000 H   0  0  0  0  0  0  0  0  0  0  0  0
   15.1398   -3.7934    0.0000 H   0  0  0  0  0  0  0  0  0  0  0  0
   13.5926   -1.1137    0.0000 H   0  0  0  0  0  0  0  0  0  0  0  0
   13.1882   -1.8019    0.0000 H   0  0  0  0  0  0  0  0  0  0  0  0
   13.2589   -2.4722    0.0000 H   0  0  0  0  0  0  0  0  0  0  0  0
   19.3584    1.5103    0.0000 H   0  0  0  0  0  0  0  0  0  0  0  0
   20.7268   -0.2839    0.0000 H   0  0  0  0  0  0  0  0  0  0  0  0
   21.5447    0.0320    0.0000 H   0  0  0  0  0  0  0  0  0  0  0  0
   21.2287    0.8499    0.0000 H   0  0  0  0  0  0  0  0  0  0  0  0
   12.0632   -3.4032    0.0000 H   0  0  0  0  0  0  0  0  0  0  0  0
   17.1027    3.0953    0.0000 H   0  0  0  0  0  0  0  0  0  0  0  0
   12.6738   -1.8908    0.0000 H   0  0  0  0  0  0  0  0  0  0  0  0
   12.2753   -1.2006    0.0000 H   0  0  0  0  0  0  0  0  0  0  0  0
   11.7341   -0.9732    0.0000 H   0  0  0  0  0  0  0  0  0  0  0  0
   10.3312   -3.4032    0.0000 H   0  0  0  0  0  0  0  0  0  0  0  0
    9.7942   -2.0932    0.0000 H   0  0  0  0  0  0  0  0  0  0  0  0
   15.1594    3.9678    0.0000 H   0  0  0  0  0  0  0  0  0  0  0  0
   14.5228    3.3123    0.0000 H   0  0  0  0  0  0  0  0  0  0  0  0
   14.2991    2.4645    0.0000 H   0  0  0  0  0  0  0  0  0  0  0  0
   15.1469    2.2408    0.0000 H   0  0  0  0  0  0  0  0  0  0  0  0
    9.1551   -2.7463    0.0000 H   0  0  0  0  0  0  0  0  0  0  0  0
    8.9282   -3.5932    0.0000 H   0  0  0  0  0  0  0  0  0  0  0  0
    9.7751   -3.8201    0.0000 H   0  0  0  0  0  0  0  0  0  0  0  0
   15.1351    5.3146    0.0000 H   0  0  0  0  0  0  0  0  0  0  0  0
   14.2890    5.0844    0.0000 H   0  0  0  0  0  0  0  0  0  0  0  0
   14.5192    4.2384    0.0000 H   0  0  0  0  0  0  0  0  0  0  0  0
   16.8713    4.2474    0.0000 H   0  0  0  0  0  0  0  0  0  0  0  0
   17.0949    5.0953    0.0000 H   0  0  0  0  0  0  0  0  0  0  0  0
   16.2471    5.3189    0.0000 H   0  0  0  0  0  0  0  0  0  0  0  0
    8.5991   -1.1632    0.0000 H   0  0  0  0  0  0  0  0  0  0  0  0
   12.3732   -0.3201    0.0000 H   0  0  0  0  0  0  0  0  0  0  0  0
   12.6002    0.5268    0.0000 H   0  0  0  0  0  0  0  0  0  0  0  0
   11.7532    0.7537    0.0000 H   0  0  0  0  0  0  0  0  0  0  0  0
    8.8112   -3.3658    0.0000 H   0  0  0  0  0  0  0  0  0  0  0  0
    9.2097   -2.6755    0.0000 H   0  0  0  0  0  0  0  0  0  0  0  0
    8.2700   -3.5932    0.0000 H   0  0  0  0  0  0  0  0  0  0  0  0
    6.8671   -1.1632    0.0000 H   0  0  0  0  0  0  0  0  0  0  0  0
    6.3301   -2.4732    0.0000 H   0  0  0  0  0  0  0  0  0  0  0  0
    6.3110   -0.7463    0.0000 H   0  0  0  0  0  0  0  0  0  0  0  0
    5.4641   -0.9732    0.0000 H   0  0  0  0  0  0  0  0  0  0  0  0
    5.6910   -1.8201    0.0000 H   0  0  0  0  0  0  0  0  0  0  0  0
    5.1350   -3.4032    0.0000 H   0  0  0  0  0  0  0  0  0  0  0  0
    8.2891   -5.3201    0.0000 H   0  0  0  0  0  0  0  0  0  0  0  0
    9.1360   -5.0932    0.0000 H   0  0  0  0  0  0  0  0  0  0  0  0
    8.9091   -4.2463    0.0000 H   0  0  0  0  0  0  0  0  0  0  0  0
    5.7456   -1.8908    0.0000 H   0  0  0  0  0  0  0  0  0  0  0  0
    5.3471   -1.2006    0.0000 H   0  0  0  0  0  0  0  0  0  0  0  0
    4.8059   -0.9732    0.0000 H   0  0  0  0  0  0  0  0  0  0  0  0
    3.4030   -3.4032    0.0000 H   0  0  0  0  0  0  0  0  0  0  0  0
    3.4030   -1.1632    0.0000 H   0  0  0  0  0  0  0  0  0  0  0  0
    2.2269   -2.7463    0.0000 H   0  0  0  0  0  0  0  0  0  0  0  0
    2.0000   -3.5932    0.0000 H   0  0  0  0  0  0  0  0  0  0  0  0
    2.8469   -3.8201    0.0000 H   0  0  0  0  0  0  0  0  0  0  0  0
    2.0000   -1.5932    0.0000 H   0  0  0  0  0  0  0  0  0  0  0  0
    3.7130    0.7537    0.0000 H   0  0  0  0  0  0  0  0  0  0  0  0
    2.8660    0.5268    0.0000 H   0  0  0  0  0  0  0  0  0  0  0  0
    3.0930   -0.3201    0.0000 H   0  0  0  0  0  0  0  0  0  0  0  0
 17  1  1  6  0  0  0
  1 82  1  0  0  0  0
 19  2  1  1  0  0  0
  2 86  1  0  0  0  0
 21  3  1  1  0  0  0
  3 38  1  0  0  0  0
 22  4  1  1  0  0  0
  4 92  1  0  0  0  0
 36  5  1  1  0  0  0
 39  5  1  6  0  0  0
  6 33  2  0  0  0  0
  7 38  2  0  0  0  0
  8 39  1  0  0  0  0
  8 44  1  0  0  0  0
 42  9  1  1  0  0  0
  9 52  1  0  0  0  0
 45 10  1  1  0  0  0
 51 10  1  1  0  0  0
 11 51  1  0  0  0  0
 11 55  1  0  0  0  0
 54 12  1  6  0  0  0
 12 59  1  0  0  0  0
 56 13  1  6  0  0  0
 58 13  1  6  0  0  0
 14 58  1  0  0  0  0
 14 62  1  0  0  0  0
 61 15  1  1  0  0  0
 15 65  1  0  0  0  0
 63 16  1  1  0  0  0
 16140  1  0  0  0  0
 17 18  1  0  0  0  0
 17 19  1  0  0  0  0
 17 25  1  0  0  0  0
 18 21  1  0  0  0  0
 18 22  1  0  0  0  0
 18 28  1  1  0  0  0
 19 20  1  0  0  0  0
 19 27  1  0  0  0  0
 20 23  1  0  0  0  0
 20 24  1  0  0  0  0
 20 66  1  6  0  0  0
 21 24  1  0  0  0  0
 21 67  1  0  0  0  0
 22 26  1  0  0  0  0
 22 33  1  0  0  0  0
 23 29  1  0  0  0  0
 23 30  1  0  0  0  0
 23 32  1  1  0  0  0
 24 68  1  0  0  0  0
 24 69  1  0  0  0  0
 25 26  1  0  0  0  0
 25 70  1  0  0  0  0
 25 71  1  0  0  0  0
 26 72  1  0  0  0  0
 26 73  1  0  0  0  0
 27 31  1  0  0  0  0
 27 74  1  0  0  0  0
 27 75  1  0  0  0  0
 28 76  1  0  0  0  0
 28 77  1  0  0  0  0
 28 78  1  0  0  0  0
 29 31  2  0  0  0  0
 29 34  1  0  0  0  0
 30 35  1  0  0  0  0
 30 79  1  0  0  0  0
 30 80  1  0  0  0  0
 31 81  1  0  0  0  0
 32 83  1  0  0  0  0
 32 84  1  0  0  0  0
 32 85  1  0  0  0  0
 33 37  1  0  0  0  0
 34 36  1  0  0  0  0
 34 87  1  0  0  0  0
 34 88  1  0  0  0  0
 35 36  1  0  0  0  0
 35 89  1  0  0  0  0
 35 90  1  0  0  0  0
 36 91  1  0  0  0  0
 37 93  1  0  0  0  0
 37 94  1  0  0  0  0
 37 95  1  0  0  0  0
 38 40  1  0  0  0  0
 39 41  1  0  0  0  0
 39 96  1  0  0  0  0
 40 43  2  0  0  0  0
 40 97  1  0  0  0  0
 41 42  1  0  0  0  0
 41 98  1  0  0  0  0
 41 99  1  0  0  0  0
 42 45  1  0  0  0  0
 42100  1  0  0  0  0
 43 46  1  0  0  0  0
 43 47  1  0  0  0  0
 44 45  1  0  0  0  0
 44 48  1  6  0  0  0
 44101  1  0  0  0  0
 45102  1  0  0  0  0
 46 49  1  0  0  0  0
 46 50  1  0  0  0  0
 46103  1  0  0  0  0
 47104  1  0  0  0  0
 47105  1  0  0  0  0
 47106  1  0  0  0  0
 48107  1  0  0  0  0
 48108  1  0  0  0  0
 48109  1  0  0  0  0
 49110  1  0  0  0  0
 49111  1  0  0  0  0
 49112  1  0  0  0  0
 50113  1  0  0  0  0
 50114  1  0  0  0  0
 50115  1  0  0  0  0
 51 53  1  0  0  0  0
 51116  1  0  0  0  0
 52117  1  0  0  0  0
 52118  1  0  0  0  0
 52119  1  0  0  0  0
 53 54  1  0  0  0  0
 53120  1  0  0  0  0
 53121  1  0  0  0  0
 54 56  1  0  0  0  0
 54122  1  0  0  0  0
 55 56  1  0  0  0  0
 55 57  1  6  0  0  0
 55123  1  0  0  0  0
 56124  1  0  0  0  0
 57125  1  0  0  0  0
 57126  1  0  0  0  0
 57127  1  0  0  0  0
 58 60  1  0  0  0  0
 58128  1  0  0  0  0
 59129  1  0  0  0  0
 59130  1  0  0  0  0
 59131  1  0  0  0  0
 60 61  1  0  0  0  0
 60132  1  0  0  0  0
 60133  1  0  0  0  0
 61 63  1  0  0  0  0
 61134  1  0  0  0  0
 62 63  1  0  0  0  0
 62 64  1  6  0  0  0
 62135  1  0  0  0  0
 63136  1  0  0  0  0
 64137  1  0  0  0  0
 64138  1  0  0  0  0
 64139  1  0  0  0  0
 65141  1  0  0  0  0
 65142  1  0  0  0  0
 65143  1  0  0  0  0
M  END
> <PUBCHEM_COMPOUND_CID>
102029162

> <PUBCHEM_COMPOUND_CANONICALIZED>
1

> <PUBCHEM_CACTVS_COMPLEXITY>
1790

> <PUBCHEM_CACTVS_HBOND_ACCEPTOR>
16

> <PUBCHEM_CACTVS_HBOND_DONOR>
4

> <PUBCHEM_CACTVS_ROTATABLE_BOND>
14

> <PUBCHEM_CACTVS_SUBSKEYS>
AAADcfB8PgAAAAAAAAAAAAAAAAAAAYAAAAA0aJECAAAAAGCAAAAAGgAACAAAD1SwgAMCCAAABgCIAqDSCAIAAAAgAAAACAFAAEgRFBIAIQAiUAAFwAAPIQPK7PzPgAAAAAAAAADCAAYQADCAAYQADAAAAA==

> <PUBCHEM_IUPAC_OPENEYE_NAME>
[(3S,8S,9R,10R,12R,13S,14S,17S)-17-acetyl-8,14,17-trihydroxy-3-[(2R,4S,5R,6R)-5-[(2S,4S,5R,6S)-5-[(2S,4S,5R,6R)-5-hydroxy-4-methoxy-6-methyl-tetrahydropyran-2-yl]oxy-4-methoxy-6-methyl-tetrahydropyran-2-yl]oxy-4-methoxy-6-methyl-tetrahydropyran-2-yl]oxy-10,13-dimethyl-1,2,3,4,7,9,11,12,15,16-decahydrocyclopenta[a]phenanthren-12-yl] (E)-3,4-dimethylpent-2-enoate

> <PUBCHEM_IUPAC_CAS_NAME>
(E)-3,4-dimethyl-2-pentenoic acid [(3S,8S,9R,10R,12R,13S,14S,17S)-17-acetyl-8,14,17-trihydroxy-3-[[(2R,4S,5R,6R)-5-[[(2S,4S,5R,6S)-5-[[(2S,4S,5R,6R)-5-hydroxy-4-methoxy-6-methyl-2-oxanyl]oxy]-4-methoxy-6-methyl-2-oxanyl]oxy]-4-methoxy-6-methyl-2-oxanyl]oxy]-10,13-dimethyl-1,2,3,4,7,9,11,12,15,16-decahydrocyclopenta[a]phenanthren-12-yl] ester

> <PUBCHEM_IUPAC_NAME_MARKUP>
[(3<I>S</I>,8<I>S</I>,9<I>R</I>,10<I>R</I>,12<I>R</I>,13<I>S</I>,14<I>S</I>,17<I>S</I>)-17-acetyl-8,14,17-trihydroxy-3-[(2<I>R</I>,4<I>S</I>,5<I>R</I>,6<I>R</I>)-5-[(2<I>S</I>,4<I>S</I>,5<I>R</I>,6<I>S</I>)-5-[(2<I>S</I>,4<I>S</I>,5<I>R</I>,6<I>R</I>)-5-hydroxy-4-methoxy-6-methyloxan-2-yl]oxy-4-methoxy-6-methyloxan-2-yl]oxy-4-methoxy-6-methyloxan-2-yl]oxy-10,13-dimethyl-1,2,3,4,7,9,11,12,15,16-decahydrocyclopenta[a]phenanthren-12-yl] (<I>E</I>)-3,4-dimethylpent-2-enoate

> <PUBCHEM_IUPAC_NAME>
[(3S,8S,9R,10R,12R,13S,14S,17S)-17-acetyl-8,14,17-trihydroxy-3-[(2R,4S,5R,6R)-5-[(2S,4S,5R,6S)-5-[(2S,4S,5R,6R)-5-hydroxy-4-methoxy-6-methyloxan-2-yl]oxy-4-methoxy-6-methyloxan-2-yl]oxy-4-methoxy-6-methyloxan-2-yl]oxy-10,13-dimethyl-1,2,3,4,7,9,11,12,15,16-decahydrocyclopenta[a]phenanthren-12-yl] (E)-3,4-dimethylpent-2-enoate

> <PUBCHEM_IUPAC_SYSTEMATIC_NAME>
[(3S,8S,9R,10R,12R,13S,14S,17S)-17-ethanoyl-3-[(2R,4S,5R,6R)-4-methoxy-5-[(2S,4S,5R,6S)-4-methoxy-5-[(2S,4S,5R,6R)-4-methoxy-6-methyl-5-oxidanyl-oxan-2-yl]oxy-6-methyl-oxan-2-yl]oxy-6-methyl-oxan-2-yl]oxy-10,13-dimethyl-8,14,17-tris(oxidanyl)-1,2,3,4,7,9,11,12,15,16-decahydrocyclopenta[a]phenanthren-12-yl] (E)-3,4-dimethylpent-2-enoate

> <PUBCHEM_IUPAC_TRADITIONAL_NAME>
(E)-3,4-dimethylpent-2-enoic acid [(3S,8S,9R,10R,12R,13S,14S,17S)-17-acetyl-8,14,17-trihydroxy-3-[(2R,4S,5R,6R)-5-[(2S,4S,5R,6S)-5-[(2S,4S,5R,6R)-5-hydroxy-4-methoxy-6-methyl-tetrahydropyran-2-yl]oxy-4-methoxy-6-methyl-tetrahydropyran-2-yl]oxy-4-methoxy-6-methyl-tetrahydropyran-2-yl]oxy-10,13-dimethyl-1,2,3,4,7,9,11,12,15,16-decahydrocyclopenta[a]phenanthren-12-yl] ester

> <PUBCHEM_IUPAC_INCHI>
InChI=1S/C49H78O16/c1-25(2)26(3)19-38(51)63-37-24-36-45(8)15-14-32(20-31(45)13-16-48(36,54)49(55)18-17-47(53,30(7)50)46(37,49)9)62-39-22-34(57-11)43(28(5)60-39)65-41-23-35(58-12)44(29(6)61-41)64-40-21-33(56-10)42(52)27(4)59-40/h13,19,25,27-29,32-37,39-44,52-55H,14-18,20-24H2,1-12H3/b26-19+/t27-,28-,29+,32+,33+,34+,35+,36-,37-,39+,40+,41+,42-,43-,44-,45+,46-,47-,48+,49+/m1/s1

> <PUBCHEM_IUPAC_INCHIKEY>
YLHXSKZGPASTOD-BBMCDEHVSA-N

> <PUBCHEM_XLOGP3_AA>
3.7

> <PUBCHEM_EXACT_MASS>
922.528986

> <PUBCHEM_MOLECULAR_FORMULA>
C49H78O16

> <PUBCHEM_MOLECULAR_WEIGHT>
923.1

> <PUBCHEM_OPENEYE_CAN_SMILES>
CC1C(C(CC(O1)OC2C(OC(CC2OC)OC3C(OC(CC3OC)OC4CCC5(C6CC(C7(C(CCC7(C6(CC=C5C4)O)O)(C(=O)C)O)C)OC(=O)C=C(C)C(C)C)C)C)C)OC)O

> <PUBCHEM_OPENEYE_ISO_SMILES>
C[C@@H]1[C@H]([C@H](C[C@@H](O1)O[C@@H]2[C@@H](O[C@H](C[C@@H]2OC)O[C@@H]3[C@H](O[C@H](C[C@@H]3OC)O[C@H]4CC[C@@]5([C@H]6C[C@H]([C@@]7([C@@](CC[C@]7([C@@]6(CC=C5C4)O)O)(C(=O)C)O)C)OC(=O)/C=C(\C)/C(C)C)C)C)C)OC)O

> <PUBCHEM_CACTVS_TPSA>
207

> <PUBCHEM_MONOISOTOPIC_WEIGHT>
922.528986

> <PUBCHEM_TOTAL_CHARGE>
0

> <PUBCHEM_HEAVY_ATOM_COUNT>
65

> <PUBCHEM_ATOM_DEF_STEREO_COUNT>
20

> <PUBCHEM_ATOM_UDEF_STEREO_COUNT>
0

> <PUBCHEM_BOND_DEF_STEREO_COUNT>
1

> <PUBCHEM_BOND_UDEF_STEREO_COUNT>
0

> <PUBCHEM_ISOTOPIC_ATOM_COUNT>
0

> <PUBCHEM_COMPONENT_COUNT>
1

> <PUBCHEM_CACTVS_TAUTO_COUNT>
-1

> <PUBCHEM_COORDINATE_TYPE>
1
5
255

> <PUBCHEM_BONDANNOTATIONS>
17  1  6
45  10  5
51  10  5
54  12  6
56  13  6
58  13  6
61  15  5
63  16  5
18  28  5
19  2  5
20  66  6
23  32  5
21  3  5
22  4  5
44  48  6
36  5  5
39  5  6
55  57  6
62  64  6
42  9  5

$$$$
