102165351
  -OEChem-09022014072D

157165  0     1  0  0  0  0  0999 V2000
   22.1241    2.8024    0.0000 O   0  0  0  0  0  0  0  0  0  0  0  0
   21.5601    3.1309    0.0000 O   0  0  0  0  0  0  0  0  0  0  0  0
   20.9028   -0.6326    0.0000 O   0  0  0  0  0  0  0  0  0  0  0  0
   22.4086   -0.3947    0.0000 O   0  0  0  0  0  0  0  0  0  0  0  0
   16.3933    3.9372    0.0000 O   0  0  0  0  0  0  0  0  0  0  0  0
   23.4208   -1.0281    0.0000 O   0  0  0  0  0  0  0  0  0  0  0  0
   19.1708   -0.6259    0.0000 O   0  0  0  0  0  0  0  0  0  0  0  0
   14.6613    3.9372    0.0000 O   0  0  0  0  0  0  0  0  0  0  0  0
   14.6613    0.9372    0.0000 O   0  0  0  0  0  0  0  0  0  0  0  0
   12.9292    1.9372    0.0000 O   0  0  0  0  0  0  0  0  0  0  0  0
   20.0195   -5.1292    0.0000 O   0  0  0  0  0  0  0  0  0  0  0  0
   11.1972    1.9372    0.0000 O   0  0  0  0  0  0  0  0  0  0  0  0
   11.1972    4.9372    0.0000 O   0  0  0  0  0  0  0  0  0  0  0  0
    9.4651    3.9372    0.0000 O   0  0  0  0  0  0  0  0  0  0  0  0
    7.7331    3.9372    0.0000 O   0  0  0  0  0  0  0  0  0  0  0  0
    6.0010    1.9372    0.0000 O   0  0  0  0  0  0  0  0  0  0  0  0
    7.7331    0.9372    0.0000 O   0  0  0  0  0  0  0  0  0  0  0  0
    4.2690    1.9372    0.0000 O   0  0  0  0  0  0  0  0  0  0  0  0
    4.2690    4.9372    0.0000 O   0  0  0  0  0  0  0  0  0  0  0  0
    2.5369    3.9372    0.0000 O   0  0  0  0  0  0  0  0  0  0  0  0
   21.7785    1.8640    0.0000 C   0  0  2  0  0  0  0  0  0  0  0  0
   21.7746    0.8641    0.0000 C   0  0  2  0  0  0  0  0  0  0  0  0
   20.9144    2.3674    0.0000 C   0  0  2  0  0  0  0  0  0  0  0  0
   20.0464    1.8707    0.0000 C   0  0  1  0  0  0  0  0  0  0  0  0
   20.9067    0.3674    0.0000 C   0  0  1  0  0  0  0  0  0  0  0  0
   22.7197    0.5557    0.0000 C   0  0  2  0  0  0  0  0  0  0  0  0
   19.1384    2.3811    0.0000 C   0  0  2  0  0  0  0  0  0  0  0  0
   20.0426    0.8707    0.0000 C   0  0  0  0  0  0  0  0  0  0  0  0
   22.7259    2.1651    0.0000 C   0  0  0  0  0  0  0  0  0  0  0  0
   23.3064    1.3582    0.0000 C   0  0  0  0  0  0  0  0  0  0  0  0
   20.9345    3.4088    0.0000 C   0  0  0  0  0  0  0  0  0  0  0  0
   21.7708   -0.1359    0.0000 C   0  0  0  0  0  0  0  0  0  0  0  0
   19.1344    3.4227    0.0000 C   0  0  0  0  0  0  0  0  0  0  0  0
   18.2094    1.8206    0.0000 C   0  0  0  0  0  0  0  0  0  0  0  0
   20.0385    3.9400    0.0000 C   0  0  0  0  0  0  0  0  0  0  0  0
   19.1423    1.3811    0.0000 C   0  0  0  0  0  0  0  0  0  0  0  0
   23.5274   -0.0338    0.0000 C   0  0  0  0  0  0  0  0  0  0  0  0
   18.2011    3.9760    0.0000 C   0  0  0  0  0  0  0  0  0  0  0  0
   17.2635    2.3522    0.0000 C   0  0  0  0  0  0  0  0  0  0  0  0
   17.2594    3.4372    0.0000 C   0  0  2  0  0  0  0  0  0  0  0  0
   24.4418    0.3710    0.0000 C   0  0  0  0  0  0  0  0  0  0  0  0
   20.0349   -1.1292    0.0000 C   0  0  0  0  0  0  0  0  0  0  0  0
   15.5273    3.4372    0.0000 C   0  0  2  0  0  0  0  0  0  0  0  0
   20.0310   -2.1292    0.0000 C   0  0  0  0  0  0  0  0  0  0  0  0
   15.5273    2.4372    0.0000 C   0  0  0  0  0  0  0  0  0  0  0  0
   14.6613    1.9372    0.0000 C   0  0  1  0  0  0  0  0  0  0  0  0
   20.8951   -2.6326    0.0000 C   0  0  0  0  0  0  0  0  0  0  0  0
   19.1631   -2.6259    0.0000 C   0  0  0  0  0  0  0  0  0  0  0  0
   13.7953    3.4372    0.0000 C   0  0  1  0  0  0  0  0  0  0  0  0
   13.7953    2.4372    0.0000 C   0  0  1  0  0  0  0  0  0  0  0  0
   20.8913   -3.6326    0.0000 C   0  0  0  0  0  0  0  0  0  0  0  0
   19.1592   -3.6259    0.0000 C   0  0  0  0  0  0  0  0  0  0  0  0
   12.9292    3.9372    0.0000 C   0  0  0  0  0  0  0  0  0  0  0  0
   20.0233   -4.1292    0.0000 C   0  0  0  0  0  0  0  0  0  0  0  0
   12.0632    2.4372    0.0000 C   0  0  2  0  0  0  0  0  0  0  0  0
   12.0632    3.4372    0.0000 C   0  0  0  0  0  0  0  0  0  0  0  0
   11.1972    3.9372    0.0000 C   0  0  2  0  0  0  0  0  0  0  0  0
   10.3312    2.4372    0.0000 C   0  0  1  0  0  0  0  0  0  0  0  0
   10.3312    3.4372    0.0000 C   0  0  1  0  0  0  0  0  0  0  0  0
    9.4651    1.9372    0.0000 C   0  0  0  0  0  0  0  0  0  0  0  0
    8.5991    3.4372    0.0000 C   0  0  2  0  0  0  0  0  0  0  0  0
   12.0632    5.4372    0.0000 C   0  0  0  0  0  0  0  0  0  0  0  0
    8.5991    2.4372    0.0000 C   0  0  0  0  0  0  0  0  0  0  0  0
    7.7331    1.9372    0.0000 C   0  0  2  0  0  0  0  0  0  0  0  0
    6.8671    2.4372    0.0000 C   0  0  2  0  0  0  0  0  0  0  0  0
    6.8671    3.4372    0.0000 C   0  0  2  0  0  0  0  0  0  0  0  0
    6.0010    3.9372    0.0000 C   0  0  0  0  0  0  0  0  0  0  0  0
    5.1350    2.4372    0.0000 C   0  0  2  0  0  0  0  0  0  0  0  0
    5.1350    3.4372    0.0000 C   0  0  0  0  0  0  0  0  0  0  0  0
    4.2690    3.9372    0.0000 C   0  0  1  0  0  0  0  0  0  0  0  0
    3.4030    3.4372    0.0000 C   0  0  1  0  0  0  0  0  0  0  0  0
    3.4030    2.4372    0.0000 C   0  0  1  0  0  0  0  0  0  0  0  0
    8.5991    0.4372    0.0000 C   0  0  0  0  0  0  0  0  0  0  0  0
    2.5369    1.9372    0.0000 C   0  0  0  0  0  0  0  0  0  0  0  0
    3.4030    5.4372    0.0000 C   0  0  0  0  0  0  0  0  0  0  0  0
   20.7809    1.4429    0.0000 H   0  0  0  0  0  0  0  0  0  0  0  0
   20.3685    0.0595    0.0000 H   0  0  0  0  0  0  0  0  0  0  0  0
   19.4324    0.9807    0.0000 H   0  0  0  0  0  0  0  0  0  0  0  0
   19.8283    0.2889    0.0000 H   0  0  0  0  0  0  0  0  0  0  0  0
   23.2644    2.4723    0.0000 H   0  0  0  0  0  0  0  0  0  0  0  0
   22.4770    2.7330    0.0000 H   0  0  0  0  0  0  0  0  0  0  0  0
   23.7656    0.9417    0.0000 H   0  0  0  0  0  0  0  0  0  0  0  0
   23.7688    1.7711    0.0000 H   0  0  0  0  0  0  0  0  0  0  0  0
   21.5432    3.2910    0.0000 H   0  0  0  0  0  0  0  0  0  0  0  0
   21.1547    3.9884    0.0000 H   0  0  0  0  0  0  0  0  0  0  0  0
   21.1508   -0.1335    0.0000 H   0  0  0  0  0  0  0  0  0  0  0  0
   21.7684   -0.7559    0.0000 H   0  0  0  0  0  0  0  0  0  0  0  0
   22.3908   -0.1383    0.0000 H   0  0  0  0  0  0  0  0  0  0  0  0
   17.8176    1.3400    0.0000 H   0  0  0  0  0  0  0  0  0  0  0  0
   18.6158    1.3523    0.0000 H   0  0  0  0  0  0  0  0  0  0  0  0
   20.0432    4.5600    0.0000 H   0  0  0  0  0  0  0  0  0  0  0  0
   22.7351    2.9077    0.0000 H   0  0  0  0  0  0  0  0  0  0  0  0
   18.5223    1.3787    0.0000 H   0  0  0  0  0  0  0  0  0  0  0  0
   19.1446    0.7611    0.0000 H   0  0  0  0  0  0  0  0  0  0  0  0
   19.7622    1.3835    0.0000 H   0  0  0  0  0  0  0  0  0  0  0  0
   21.6701    3.7411    0.0000 H   0  0  0  0  0  0  0  0  0  0  0  0
   18.6039    4.4474    0.0000 H   0  0  0  0  0  0  0  0  0  0  0  0
   17.8056    4.4535    0.0000 H   0  0  0  0  0  0  0  0  0  0  0  0
   16.6523    2.4559    0.0000 H   0  0  0  0  0  0  0  0  0  0  0  0
   17.0567    1.7677    0.0000 H   0  0  0  0  0  0  0  0  0  0  0  0
   16.7230    3.1261    0.0000 H   0  0  0  0  0  0  0  0  0  0  0  0
   22.8225   -0.8564    0.0000 H   0  0  0  0  0  0  0  0  0  0  0  0
   24.6928   -0.1960    0.0000 H   0  0  0  0  0  0  0  0  0  0  0  0
   25.0088    0.6219    0.0000 H   0  0  0  0  0  0  0  0  0  0  0  0
   24.1909    0.9379    0.0000 H   0  0  0  0  0  0  0  0  0  0  0  0
   15.5273    4.0572    0.0000 H   0  0  0  0  0  0  0  0  0  0  0  0
   15.7394    1.8545    0.0000 H   0  0  0  0  0  0  0  0  0  0  0  0
   16.1379    2.5448    0.0000 H   0  0  0  0  0  0  0  0  0  0  0  0
   14.1244    1.6272    0.0000 H   0  0  0  0  0  0  0  0  0  0  0  0
   21.4332   -2.3246    0.0000 H   0  0  0  0  0  0  0  0  0  0  0  0
   18.6273   -2.3138    0.0000 H   0  0  0  0  0  0  0  0  0  0  0  0
   13.7953    4.0572    0.0000 H   0  0  0  0  0  0  0  0  0  0  0  0
   13.2583    2.7472    0.0000 H   0  0  0  0  0  0  0  0  0  0  0  0
   21.4270   -3.9446    0.0000 H   0  0  0  0  0  0  0  0  0  0  0  0
   18.6211   -3.9338    0.0000 H   0  0  0  0  0  0  0  0  0  0  0  0
   13.2392    4.4741    0.0000 H   0  0  0  0  0  0  0  0  0  0  0  0
   12.3923    4.2472    0.0000 H   0  0  0  0  0  0  0  0  0  0  0  0
   12.6192    3.4002    0.0000 H   0  0  0  0  0  0  0  0  0  0  0  0
   15.1982    0.6272    0.0000 H   0  0  0  0  0  0  0  0  0  0  0  0
   12.0632    1.8172    0.0000 H   0  0  0  0  0  0  0  0  0  0  0  0
   12.6738    3.3295    0.0000 H   0  0  0  0  0  0  0  0  0  0  0  0
   12.2753    4.0198    0.0000 H   0  0  0  0  0  0  0  0  0  0  0  0
   19.4813   -5.4372    0.0000 H   0  0  0  0  0  0  0  0  0  0  0  0
   11.7341    4.2472    0.0000 H   0  0  0  0  0  0  0  0  0  0  0  0
   10.3312    1.8172    0.0000 H   0  0  0  0  0  0  0  0  0  0  0  0
    9.7942    3.1272    0.0000 H   0  0  0  0  0  0  0  0  0  0  0  0
    9.1551    2.4741    0.0000 H   0  0  0  0  0  0  0  0  0  0  0  0
    8.9282    1.6272    0.0000 H   0  0  0  0  0  0  0  0  0  0  0  0
    9.7751    1.4002    0.0000 H   0  0  0  0  0  0  0  0  0  0  0  0
    8.5991    4.0572    0.0000 H   0  0  0  0  0  0  0  0  0  0  0  0
    8.8112    1.8545    0.0000 H   0  0  0  0  0  0  0  0  0  0  0  0
    9.2097    2.5448    0.0000 H   0  0  0  0  0  0  0  0  0  0  0  0
   12.3732    4.9002    0.0000 H   0  0  0  0  0  0  0  0  0  0  0  0
   12.6002    5.7472    0.0000 H   0  0  0  0  0  0  0  0  0  0  0  0
   11.7532    5.9741    0.0000 H   0  0  0  0  0  0  0  0  0  0  0  0
    8.2700    1.6272    0.0000 H   0  0  0  0  0  0  0  0  0  0  0  0
    6.3301    2.7472    0.0000 H   0  0  0  0  0  0  0  0  0  0  0  0
    6.8671    4.0572    0.0000 H   0  0  0  0  0  0  0  0  0  0  0  0
    6.3110    4.4741    0.0000 H   0  0  0  0  0  0  0  0  0  0  0  0
    5.4641    4.2472    0.0000 H   0  0  0  0  0  0  0  0  0  0  0  0
    5.6910    3.4002    0.0000 H   0  0  0  0  0  0  0  0  0  0  0  0
    5.1350    1.8172    0.0000 H   0  0  0  0  0  0  0  0  0  0  0  0
    5.7456    3.3295    0.0000 H   0  0  0  0  0  0  0  0  0  0  0  0
    5.3471    4.0198    0.0000 H   0  0  0  0  0  0  0  0  0  0  0  0
    4.8059    4.2472    0.0000 H   0  0  0  0  0  0  0  0  0  0  0  0
    3.4030    4.0572    0.0000 H   0  0  0  0  0  0  0  0  0  0  0  0
    3.4030    1.8172    0.0000 H   0  0  0  0  0  0  0  0  0  0  0  0
    8.2891   -0.0998    0.0000 H   0  0  0  0  0  0  0  0  0  0  0  0
    9.1360    0.1272    0.0000 H   0  0  0  0  0  0  0  0  0  0  0  0
    8.9091    0.9741    0.0000 H   0  0  0  0  0  0  0  0  0  0  0  0
    2.2269    2.4741    0.0000 H   0  0  0  0  0  0  0  0  0  0  0  0
    2.0000    1.6272    0.0000 H   0  0  0  0  0  0  0  0  0  0  0  0
    2.8469    1.4002    0.0000 H   0  0  0  0  0  0  0  0  0  0  0  0
    2.0000    3.6272    0.0000 H   0  0  0  0  0  0  0  0  0  0  0  0
    3.7130    5.9741    0.0000 H   0  0  0  0  0  0  0  0  0  0  0  0
    2.8660    5.7472    0.0000 H   0  0  0  0  0  0  0  0  0  0  0  0
    3.0930    4.9002    0.0000 H   0  0  0  0  0  0  0  0  0  0  0  0
 21  1  1  6  0  0  0
  1 92  1  0  0  0  0
 23  2  1  6  0  0  0
  2 96  1  0  0  0  0
 25  3  1  6  0  0  0
  3 42  1  0  0  0  0
 26  4  1  6  0  0  0
  4102  1  0  0  0  0
 40  5  1  6  0  0  0
 43  5  1  1  0  0  0
  6 37  2  0  0  0  0
  7 42  2  0  0  0  0
  8 43  1  0  0  0  0
  8 49  1  0  0  0  0
 46  9  1  6  0  0  0
  9119  1  0  0  0  0
 50 10  1  6  0  0  0
 55 10  1  6  0  0  0
 11 54  1  0  0  0  0
 11123  1  0  0  0  0
 12 55  1  0  0  0  0
 12 58  1  0  0  0  0
 57 13  1  6  0  0  0
 13 62  1  0  0  0  0
 59 14  1  1  0  0  0
 61 14  1  1  0  0  0
 15 61  1  0  0  0  0
 15 66  1  0  0  0  0
 65 16  1  1  0  0  0
 68 16  1  6  0  0  0
 64 17  1  1  0  0  0
 17 73  1  0  0  0  0
 18 68  1  0  0  0  0
 18 72  1  0  0  0  0
 70 19  1  1  0  0  0
 19 75  1  0  0  0  0
 71 20  1  1  0  0  0
 20154  1  0  0  0  0
 21 22  1  0  0  0  0
 21 23  1  0  0  0  0
 21 29  1  0  0  0  0
 22 25  1  0  0  0  0
 22 26  1  0  0  0  0
 22 32  1  6  0  0  0
 23 24  1  0  0  0  0
 23 31  1  0  0  0  0
 24 27  1  0  0  0  0
 24 28  1  0  0  0  0
 24 76  1  1  0  0  0
 25 28  1  0  0  0  0
 25 77  1  0  0  0  0
 26 30  1  0  0  0  0
 26 37  1  0  0  0  0
 27 33  1  0  0  0  0
 27 34  1  0  0  0  0
 27 36  1  6  0  0  0
 28 78  1  0  0  0  0
 28 79  1  0  0  0  0
 29 30  1  0  0  0  0
 29 80  1  0  0  0  0
 29 81  1  0  0  0  0
 30 82  1  0  0  0  0
 30 83  1  0  0  0  0
 31 35  1  0  0  0  0
 31 84  1  0  0  0  0
 31 85  1  0  0  0  0
 32 86  1  0  0  0  0
 32 87  1  0  0  0  0
 32 88  1  0  0  0  0
 33 35  2  0  0  0  0
 33 38  1  0  0  0  0
 34 39  1  0  0  0  0
 34 89  1  0  0  0  0
 34 90  1  0  0  0  0
 35 91  1  0  0  0  0
 36 93  1  0  0  0  0
 36 94  1  0  0  0  0
 36 95  1  0  0  0  0
 37 41  1  0  0  0  0
 38 40  1  0  0  0  0
 38 97  1  0  0  0  0
 38 98  1  0  0  0  0
 39 40  1  0  0  0  0
 39 99  1  0  0  0  0
 39100  1  0  0  0  0
 40101  1  0  0  0  0
 41103  1  0  0  0  0
 41104  1  0  0  0  0
 41105  1  0  0  0  0
 42 44  1  0  0  0  0
 43 45  1  0  0  0  0
 43106  1  0  0  0  0
 44 47  2  0  0  0  0
 44 48  1  0  0  0  0
 45 46  1  0  0  0  0
 45107  1  0  0  0  0
 45108  1  0  0  0  0
 46 50  1  0  0  0  0
 46109  1  0  0  0  0
 47 51  1  0  0  0  0
 47110  1  0  0  0  0
 48 52  2  0  0  0  0
 48111  1  0  0  0  0
 49 50  1  0  0  0  0
 49 53  1  1  0  0  0
 49112  1  0  0  0  0
 50113  1  0  0  0  0
 51 54  2  0  0  0  0
 51114  1  0  0  0  0
 52 54  1  0  0  0  0
 52115  1  0  0  0  0
 53116  1  0  0  0  0
 53117  1  0  0  0  0
 53118  1  0  0  0  0
 55 56  1  0  0  0  0
 55120  1  0  0  0  0
 56 57  1  0  0  0  0
 56121  1  0  0  0  0
 56122  1  0  0  0  0
 57 59  1  0  0  0  0
 57124  1  0  0  0  0
 58 59  1  0  0  0  0
 58 60  1  6  0  0  0
 58125  1  0  0  0  0
 59126  1  0  0  0  0
 60127  1  0  0  0  0
 60128  1  0  0  0  0
 60129  1  0  0  0  0
 61 63  1  0  0  0  0
 61130  1  0  0  0  0
 62133  1  0  0  0  0
 62134  1  0  0  0  0
 62135  1  0  0  0  0
 63 64  1  0  0  0  0
 63131  1  0  0  0  0
 63132  1  0  0  0  0
 64 65  1  0  0  0  0
 64136  1  0  0  0  0
 65 66  1  0  0  0  0
 65137  1  0  0  0  0
 66 67  1  6  0  0  0
 66138  1  0  0  0  0
 67139  1  0  0  0  0
 67140  1  0  0  0  0
 67141  1  0  0  0  0
 68 69  1  0  0  0  0
 68142  1  0  0  0  0
 69 70  1  0  0  0  0
 69143  1  0  0  0  0
 69144  1  0  0  0  0
 70 71  1  0  0  0  0
 70145  1  0  0  0  0
 71 72  1  0  0  0  0
 71146  1  0  0  0  0
 72 74  1  6  0  0  0
 72147  1  0  0  0  0
 73148  1  0  0  0  0
 73149  1  0  0  0  0
 73150  1  0  0  0  0
 74151  1  0  0  0  0
 74152  1  0  0  0  0
 74153  1  0  0  0  0
 75155  1  0  0  0  0
 75156  1  0  0  0  0
 75157  1  0  0  0  0
M  END
> <PUBCHEM_COMPOUND_CID>
102165351

> <PUBCHEM_COMPOUND_CANONICALIZED>
1

> <PUBCHEM_CACTVS_COMPLEXITY>
2040

> <PUBCHEM_CACTVS_HBOND_ACCEPTOR>
20

> <PUBCHEM_CACTVS_HBOND_DONOR>
6

> <PUBCHEM_CACTVS_ROTATABLE_BOND>
15

> <PUBCHEM_CACTVS_SUBSKEYS>
AAADcfB8PgAAAAAAAAAAAAAAAAAAAYAAAAA0aNEiAAAAAGCBAAAAGgAACAAAD1SwmAMyDoAABgCIAqDSCAICAAAkIAAIiAFGCMgZNjKCNRqicQAlwBEPuYfK7PzPoAAAAAAAAADCAAYQADCAAYQADAAAAA==

> <PUBCHEM_IUPAC_OPENEYE_NAME>
[(3S,8S,9R,10R,12R,13S,14R,17S)-17-acetyl-8,14,17-trihydroxy-3-[(2R,4S,5S,6R)-4-hydroxy-5-[(2S,4R,5R,6R)-5-[(2S,4R,5S,6S)-5-[(2S,4S,5R,6R)-5-hydroxy-4-methoxy-6-methyl-tetrahydropyran-2-yl]oxy-4-methoxy-6-methyl-tetrahydropyran-2-yl]oxy-4-methoxy-6-methyl-tetrahydropyran-2-yl]oxy-6-methyl-tetrahydropyran-2-yl]oxy-10,13-dimethyl-1,2,3,4,7,9,11,12,15,16-decahydrocyclopenta[a]phenanthren-12-yl] 4-hydroxybenzoate

> <PUBCHEM_IUPAC_CAS_NAME>
4-hydroxybenzoic acid [(3S,8S,9R,10R,12R,13S,14R,17S)-17-acetyl-8,14,17-trihydroxy-3-[[(2R,4S,5S,6R)-4-hydroxy-5-[[(2S,4R,5R,6R)-5-[[(2S,4R,5S,6S)-5-[[(2S,4S,5R,6R)-5-hydroxy-4-methoxy-6-methyl-2-oxanyl]oxy]-4-methoxy-6-methyl-2-oxanyl]oxy]-4-methoxy-6-methyl-2-oxanyl]oxy]-6-methyl-2-oxanyl]oxy]-10,13-dimethyl-1,2,3,4,7,9,11,12,15,16-decahydrocyclopenta[a]phenanthren-12-yl] ester

> <PUBCHEM_IUPAC_NAME_MARKUP>
[(3<I>S</I>,8<I>S</I>,9<I>R</I>,10<I>R</I>,12<I>R</I>,13<I>S</I>,14<I>R</I>,17<I>S</I>)-17-acetyl-8,14,17-trihydroxy-3-[(2<I>R</I>,4<I>S</I>,5<I>S</I>,6<I>R</I>)-4-hydroxy-5-[(2<I>S</I>,4<I>R</I>,5<I>R</I>,6<I>R</I>)-5-[(2<I>S</I>,4<I>R</I>,5<I>S</I>,6<I>S</I>)-5-[(2<I>S</I>,4<I>S</I>,5<I>R</I>,6<I>R</I>)-5-hydroxy-4-methoxy-6-methyloxan-2-yl]oxy-4-methoxy-6-methyloxan-2-yl]oxy-4-methoxy-6-methyloxan-2-yl]oxy-6-methyloxan-2-yl]oxy-10,13-dimethyl-1,2,3,4,7,9,11,12,15,16-decahydrocyclopenta[a]phenanthren-12-yl] 4-hydroxybenzoate

> <PUBCHEM_IUPAC_NAME>
[(3S,8S,9R,10R,12R,13S,14R,17S)-17-acetyl-8,14,17-trihydroxy-3-[(2R,4S,5S,6R)-4-hydroxy-5-[(2S,4R,5R,6R)-5-[(2S,4R,5S,6S)-5-[(2S,4S,5R,6R)-5-hydroxy-4-methoxy-6-methyloxan-2-yl]oxy-4-methoxy-6-methyloxan-2-yl]oxy-4-methoxy-6-methyloxan-2-yl]oxy-6-methyloxan-2-yl]oxy-10,13-dimethyl-1,2,3,4,7,9,11,12,15,16-decahydrocyclopenta[a]phenanthren-12-yl] 4-hydroxybenzoate

> <PUBCHEM_IUPAC_SYSTEMATIC_NAME>
[(3S,8S,9R,10R,12R,13S,14R,17S)-17-ethanoyl-3-[(2R,4S,5S,6R)-5-[(2S,4R,5R,6R)-4-methoxy-5-[(2S,4R,5S,6S)-4-methoxy-5-[(2S,4S,5R,6R)-4-methoxy-6-methyl-5-oxidanyl-oxan-2-yl]oxy-6-methyl-oxan-2-yl]oxy-6-methyl-oxan-2-yl]oxy-6-methyl-4-oxidanyl-oxan-2-yl]oxy-10,13-dimethyl-8,14,17-tris(oxidanyl)-1,2,3,4,7,9,11,12,15,16-decahydrocyclopenta[a]phenanthren-12-yl] 4-oxidanylbenzoate

> <PUBCHEM_IUPAC_TRADITIONAL_NAME>
4-hydroxybenzoic acid [(3S,8S,9R,10R,12R,13S,14R,17S)-17-acetyl-8,14,17-trihydroxy-3-[(2R,4S,5S,6R)-4-hydroxy-5-[(2S,4R,5R,6R)-5-[(2S,4R,5S,6S)-5-[(2S,4S,5R,6R)-5-hydroxy-4-methoxy-6-methyl-tetrahydropyran-2-yl]oxy-4-methoxy-6-methyl-tetrahydropyran-2-yl]oxy-4-methoxy-6-methyl-tetrahydropyran-2-yl]oxy-6-methyl-tetrahydropyran-2-yl]oxy-10,13-dimethyl-1,2,3,4,7,9,11,12,15,16-decahydrocyclopenta[a]phenanthren-12-yl] ester

> <PUBCHEM_IUPAC_INCHI>
InChI=1S/C55H82O20/c1-27-46(59)37(64-8)23-43(67-27)74-48-30(4)70-45(25-39(48)66-10)75-49-29(3)69-44(24-38(49)65-9)73-47-28(2)68-42(22-36(47)58)71-35-16-17-51(6)33(21-35)15-18-54(62)40(51)26-41(72-50(60)32-11-13-34(57)14-12-32)52(7)53(61,31(5)56)19-20-55(52,54)63/h11-15,27-30,35-49,57-59,61-63H,16-26H2,1-10H3/t27-,28-,29-,30+,35+,36+,37+,38-,39-,40-,41-,42+,43+,44+,45+,46-,47-,48+,49-,51+,52-,53-,54+,55-/m1/s1

> <PUBCHEM_IUPAC_INCHIKEY>
CEKZROJGGVHAFP-TWJRIPLJSA-N

> <PUBCHEM_XLOGP3_AA>
2.6

> <PUBCHEM_EXACT_MASS>
1062.539945

> <PUBCHEM_MOLECULAR_FORMULA>
C55H82O20

> <PUBCHEM_MOLECULAR_WEIGHT>
1063.2

> <PUBCHEM_OPENEYE_CAN_SMILES>
CC1C(C(CC(O1)OC2C(OC(CC2OC)OC3C(OC(CC3OC)OC4C(OC(CC4O)OC5CCC6(C7CC(C8(C(CCC8(C7(CC=C6C5)O)O)(C(=O)C)O)C)OC(=O)C9=CC=C(C=C9)O)C)C)C)C)OC)O

> <PUBCHEM_OPENEYE_ISO_SMILES>
C[C@@H]1[C@H]([C@H](C[C@@H](O1)O[C@H]2[C@@H](O[C@H](C[C@H]2OC)O[C@@H]3[C@H](O[C@H](C[C@H]3OC)O[C@@H]4[C@H](O[C@H](C[C@@H]4O)O[C@H]5CC[C@@]6([C@H]7C[C@H]([C@@]8([C@@](CC[C@@]8([C@@]7(CC=C6C5)O)O)(C(=O)C)O)C)OC(=O)C9=CC=C(C=C9)O)C)C)C)C)OC)O

> <PUBCHEM_CACTVS_TPSA>
266

> <PUBCHEM_MONOISOTOPIC_WEIGHT>
1062.539945

> <PUBCHEM_TOTAL_CHARGE>
0

> <PUBCHEM_HEAVY_ATOM_COUNT>
75

> <PUBCHEM_ATOM_DEF_STEREO_COUNT>
24

> <PUBCHEM_ATOM_UDEF_STEREO_COUNT>
0

> <PUBCHEM_BOND_DEF_STEREO_COUNT>
0

> <PUBCHEM_BOND_UDEF_STEREO_COUNT>
0

> <PUBCHEM_ISOTOPIC_ATOM_COUNT>
0

> <PUBCHEM_COMPONENT_COUNT>
1

> <PUBCHEM_CACTVS_TAUTO_COUNT>
-1

> <PUBCHEM_COORDINATE_TYPE>
1
5
255

> <PUBCHEM_BONDANNOTATIONS>
21  1  6
50  10  6
55  10  6
57  13  6
59  14  5
61  14  5
65  16  5
68  16  6
64  17  5
70  19  5
23  2  6
71  20  5
22  32  6
24  76  5
27  36  6
25  3  6
26  4  6
44  47  8
44  48  8
47  51  8
48  52  8
49  53  5
40  5  6
43  5  5
51  54  8
52  54  8
58  60  6
66  67  6
72  74  6
46  9  6

$$$$
