56642569
  -OEChem-09022014342D

207216  0     1  0  0  0  0  0999 V2000
   16.5440   10.3087    0.0000 O   0  0  0  0  0  0  0  0  0  0  0  0
   16.5465    9.6560    0.0000 O   0  0  0  0  0  0  0  0  0  0  0  0
   12.9585   10.9686    0.0000 O   0  0  0  0  0  0  0  0  0  0  0  0
   13.9174   12.1537    0.0000 O   0  0  0  0  0  0  0  0  0  0  0  0
   14.6613    4.7784    0.0000 O   0  0  0  0  0  0  0  0  0  0  0  0
   13.8750   13.3469    0.0000 O   0  0  0  0  0  0  0  0  0  0  0  0
   12.0983    9.4652    0.0000 O   0  0  0  0  0  0  0  0  0  0  0  0
   12.9292    4.7784    0.0000 O   0  0  0  0  0  0  0  0  0  0  0  0
   12.9292    1.7784    0.0000 O   0  0  0  0  0  0  0  0  0  0  0  0
   11.1972    2.7784    0.0000 O   0  0  0  0  0  0  0  0  0  0  0  0
   10.3312    1.2784    0.0000 O   0  0  0  0  0  0  0  0  0  0  0  0
   12.9292   -0.2216    0.0000 O   0  0  0  0  0  0  0  0  0  0  0  0
   11.1972   -1.2216    0.0000 O   0  0  0  0  0  0  0  0  0  0  0  0
   10.3312   -2.7216    0.0000 O   0  0  0  0  0  0  0  0  0  0  0  0
    7.7331   -1.2216    0.0000 O   0  0  0  0  0  0  0  0  0  0  0  0
    7.7331   -3.2216    0.0000 O   0  0  0  0  0  0  0  0  0  0  0  0
    6.8671   -4.7216    0.0000 O   0  0  0  0  0  0  0  0  0  0  0  0
    7.7331   -7.2216    0.0000 O   0  0  0  0  0  0  0  0  0  0  0  0
    9.4651   -6.2216    0.0000 O   0  0  0  0  0  0  0  0  0  0  0  0
    6.0010   -7.2216    0.0000 O   0  0  0  0  0  0  0  0  0  0  0  0
    4.2690   -9.2216    0.0000 O   0  0  0  0  0  0  0  0  0  0  0  0
    7.7331   -9.2216    0.0000 O   0  0  0  0  0  0  0  0  0  0  0  0
    6.0010  -10.2216    0.0000 O   0  0  0  0  0  0  0  0  0  0  0  0
    5.1350  -10.7216    0.0000 O   0  0  0  0  0  0  0  0  0  0  0  0
    4.2690   -6.2216    0.0000 O   0  0  0  0  0  0  0  0  0  0  0  0
    2.5369  -10.2216    0.0000 O   0  0  0  0  0  0  0  0  0  0  0  0
    2.5369  -12.2216    0.0000 O   0  0  0  0  0  0  0  0  0  0  0  0
    4.2690  -13.2216    0.0000 O   0  0  0  0  0  0  0  0  0  0  0  0
    6.8671  -11.7216    0.0000 O   0  0  0  0  0  0  0  0  0  0  0  0
   15.5585   10.4786    0.0000 C   0  0  2  0  0  0  0  0  0  0  0  0
   14.6906   10.9752    0.0000 C   0  0  2  0  0  0  0  0  0  0  0  0
   15.5624    9.4786    0.0000 C   0  0  2  0  0  0  0  0  0  0  0  0
   14.6983    8.9752    0.0000 C   0  0  1  0  0  0  0  0  0  0  0  0
   13.8265   10.4719    0.0000 C   0  0  1  0  0  0  0  0  0  0  0  0
   14.8960   11.9478    0.0000 C   0  0  2  0  0  0  0  0  0  0  0  0
   14.6862    7.9337    0.0000 C   0  0  2  0  0  0  0  0  0  0  0  0
   13.8303    9.4719    0.0000 C   0  0  0  0  0  0  0  0  0  0  0  0
   16.2929   11.1485    0.0000 C   0  0  0  0  0  0  0  0  0  0  0  0
   15.8843   12.0547    0.0000 C   0  0  0  0  0  0  0  0  0  0  0  0
   16.4743    8.9752    0.0000 C   0  0  0  0  0  0  0  0  0  0  0  0
   13.8226   11.4719    0.0000 C   0  0  0  0  0  0  0  0  0  0  0  0
   15.5863    7.4094    0.0000 C   0  0  0  0  0  0  0  0  0  0  0  0
   13.7363    7.4094    0.0000 C   0  0  0  0  0  0  0  0  0  0  0  0
   16.4863    7.9337    0.0000 C   0  0  0  0  0  0  0  0  0  0  0  0
   13.8221    8.4370    0.0000 C   0  0  0  0  0  0  0  0  0  0  0  0
   14.7894   12.9421    0.0000 C   0  0  0  0  0  0  0  0  0  0  0  0
   15.5988    6.3245    0.0000 C   0  0  0  0  0  0  0  0  0  0  0  0
   13.7238    6.3245    0.0000 C   0  0  0  0  0  0  0  0  0  0  0  0
   14.6613    5.7784    0.0000 C   0  0  2  0  0  0  0  0  0  0  0  0
   15.5971   13.5316    0.0000 C   0  0  0  0  0  0  0  0  0  0  0  0
   12.0944   10.4652    0.0000 C   0  0  0  0  0  0  0  0  0  0  0  0
   13.7953    4.2784    0.0000 C   0  0  2  0  0  0  0  0  0  0  0  0
   11.2265   10.9619    0.0000 C   0  0  0  0  0  0  0  0  0  0  0  0
   13.7953    3.2784    0.0000 C   0  0  0  0  0  0  0  0  0  0  0  0
   10.3624   10.4585    0.0000 C   0  0  0  0  0  0  0  0  0  0  0  0
   12.9292    2.7784    0.0000 C   0  0  1  0  0  0  0  0  0  0  0  0
   12.0632    4.2784    0.0000 C   0  0  1  0  0  0  0  0  0  0  0  0
   12.0632    3.2784    0.0000 C   0  0  1  0  0  0  0  0  0  0  0  0
    9.4944   10.9552    0.0000 C   0  0  0  0  0  0  0  0  0  0  0  0
   10.3662    9.4586    0.0000 C   0  0  0  0  0  0  0  0  0  0  0  0
   11.1972    4.7784    0.0000 C   0  0  0  0  0  0  0  0  0  0  0  0
    8.6304   10.4519    0.0000 C   0  0  0  0  0  0  0  0  0  0  0  0
    9.4906   11.9552    0.0000 C   0  0  0  0  0  0  0  0  0  0  0  0
   11.1972    1.7784    0.0000 C   0  0  2  0  0  0  0  0  0  0  0  0
   13.7953    1.2784    0.0000 C   0  0  0  0  0  0  0  0  0  0  0  0
   12.0632    1.2784    0.0000 C   0  0  0  0  0  0  0  0  0  0  0  0
   12.0632    0.2784    0.0000 C   0  0  1  0  0  0  0  0  0  0  0  0
   10.3312    0.2784    0.0000 C   0  0  2  0  0  0  0  0  0  0  0  0
   11.1972   -0.2216    0.0000 C   0  0  1  0  0  0  0  0  0  0  0  0
    9.4651   -0.2216    0.0000 C   0  0  0  0  0  0  0  0  0  0  0  0
   10.3312   -1.7216    0.0000 C   0  0  2  0  0  0  0  0  0  0  0  0
   13.7953    0.2784    0.0000 C   0  0  0  0  0  0  0  0  0  0  0  0
    9.4651   -1.2216    0.0000 C   0  0  0  0  0  0  0  0  0  0  0  0
    8.5991   -1.7216    0.0000 C   0  0  1  0  0  0  0  0  0  0  0  0
    9.4651   -3.2216    0.0000 C   0  0  1  0  0  0  0  0  0  0  0  0
    8.5991   -2.7216    0.0000 C   0  0  1  0  0  0  0  0  0  0  0  0
    9.4651   -4.2216    0.0000 C   0  0  0  0  0  0  0  0  0  0  0  0
    7.7331   -4.2216    0.0000 C   0  0  2  0  0  0  0  0  0  0  0  0
    8.5991   -4.7216    0.0000 C   0  0  0  0  0  0  0  0  0  0  0  0
    7.7331   -0.2216    0.0000 C   0  0  0  0  0  0  0  0  0  0  0  0
    8.5991   -5.7216    0.0000 C   0  0  2  0  0  0  0  0  0  0  0  0
    7.7331   -6.2216    0.0000 C   0  0  2  0  0  0  0  0  0  0  0  0
    6.8671   -5.7216    0.0000 C   0  0  2  0  0  0  0  0  0  0  0  0
    6.8671   -7.7216    0.0000 C   0  0  2  0  0  0  0  0  0  0  0  0
    6.8671   -8.7216    0.0000 C   0  0  1  0  0  0  0  0  0  0  0  0
    5.1350   -8.7216    0.0000 C   0  0  1  0  0  0  0  0  0  0  0  0
    6.0010   -9.2216    0.0000 C   0  0  2  0  0  0  0  0  0  0  0  0
    6.0010   -6.2216    0.0000 C   0  0  0  0  0  0  0  0  0  0  0  0
    5.1350   -7.7216    0.0000 C   0  0  1  0  0  0  0  0  0  0  0  0
    4.2690  -10.2216    0.0000 C   0  0  2  0  0  0  0  0  0  0  0  0
    4.2690   -7.2216    0.0000 C   0  0  0  0  0  0  0  0  0  0  0  0
    3.4030  -10.7216    0.0000 C   0  0  1  0  0  0  0  0  0  0  0  0
    3.4030  -11.7216    0.0000 C   0  0  2  0  0  0  0  0  0  0  0  0
    4.2690  -12.2216    0.0000 C   0  0  1  0  0  0  0  0  0  0  0  0
   10.3312   -5.7216    0.0000 C   0  0  0  0  0  0  0  0  0  0  0  0
    5.1350  -11.7216    0.0000 C   0  0  1  0  0  0  0  0  0  0  0  0
    6.0010  -12.2216    0.0000 C   0  0  0  0  0  0  0  0  0  0  0  0
   15.4327    8.5474    0.0000 H   0  0  0  0  0  0  0  0  0  0  0  0
   13.8241   11.0919    0.0000 H   0  0  0  0  0  0  0  0  0  0  0  0
   13.2193    9.5772    0.0000 H   0  0  0  0  0  0  0  0  0  0  0  0
   13.6205    8.8885    0.0000 H   0  0  0  0  0  0  0  0  0  0  0  0
   16.6603   10.6490    0.0000 H   0  0  0  0  0  0  0  0  0  0  0  0
   16.8282   11.4613    0.0000 H   0  0  0  0  0  0  0  0  0  0  0  0
   16.4732   12.2487    0.0000 H   0  0  0  0  0  0  0  0  0  0  0  0
   15.7533   12.6607    0.0000 H   0  0  0  0  0  0  0  0  0  0  0  0
   17.0863    8.8762    0.0000 H   0  0  0  0  0  0  0  0  0  0  0  0
   16.6766    9.5613    0.0000 H   0  0  0  0  0  0  0  0  0  0  0  0
   14.1305   12.0100    0.0000 H   0  0  0  0  0  0  0  0  0  0  0  0
   13.2845   11.7798    0.0000 H   0  0  0  0  0  0  0  0  0  0  0  0
   13.5147   10.9338    0.0000 H   0  0  0  0  0  0  0  0  0  0  0  0
   13.5340    7.9955    0.0000 H   0  0  0  0  0  0  0  0  0  0  0  0
   13.1243    7.3104    0.0000 H   0  0  0  0  0  0  0  0  0  0  0  0
   17.0257    7.6278    0.0000 H   0  0  0  0  0  0  0  0  0  0  0  0
   16.9407   10.7852    0.0000 H   0  0  0  0  0  0  0  0  0  0  0  0
   14.1342    8.9728    0.0000 H   0  0  0  0  0  0  0  0  0  0  0  0
   13.2864    8.7491    0.0000 H   0  0  0  0  0  0  0  0  0  0  0  0
   13.5101    7.9013    0.0000 H   0  0  0  0  0  0  0  0  0  0  0  0
   17.1299    9.4462    0.0000 H   0  0  0  0  0  0  0  0  0  0  0  0
   15.8146    5.7432    0.0000 H   0  0  0  0  0  0  0  0  0  0  0  0
   16.2084    6.4376    0.0000 H   0  0  0  0  0  0  0  0  0  0  0  0
   13.1142    6.4376    0.0000 H   0  0  0  0  0  0  0  0  0  0  0  0
   13.5080    5.7432    0.0000 H   0  0  0  0  0  0  0  0  0  0  0  0
   15.1988    5.4694    0.0000 H   0  0  0  0  0  0  0  0  0  0  0  0
   13.7246   12.7429    0.0000 H   0  0  0  0  0  0  0  0  0  0  0  0
   15.9626   13.0308    0.0000 H   0  0  0  0  0  0  0  0  0  0  0  0
   16.0979   13.8971    0.0000 H   0  0  0  0  0  0  0  0  0  0  0  0
   15.2316   14.0325    0.0000 H   0  0  0  0  0  0  0  0  0  0  0  0
   14.3322    3.9684    0.0000 H   0  0  0  0  0  0  0  0  0  0  0  0
   11.2241   11.5819    0.0000 H   0  0  0  0  0  0  0  0  0  0  0  0
   14.0073    2.6958    0.0000 H   0  0  0  0  0  0  0  0  0  0  0  0
   14.4058    3.3860    0.0000 H   0  0  0  0  0  0  0  0  0  0  0  0
   13.4662    2.4684    0.0000 H   0  0  0  0  0  0  0  0  0  0  0  0
   12.0632    4.8984    0.0000 H   0  0  0  0  0  0  0  0  0  0  0  0
   12.0632    2.6584    0.0000 H   0  0  0  0  0  0  0  0  0  0  0  0
    8.9563   11.2631    0.0000 H   0  0  0  0  0  0  0  0  0  0  0  0
    9.7462    9.4562    0.0000 H   0  0  0  0  0  0  0  0  0  0  0  0
   10.3686    8.8386    0.0000 H   0  0  0  0  0  0  0  0  0  0  0  0
   10.9862    9.4609    0.0000 H   0  0  0  0  0  0  0  0  0  0  0  0
   11.5072    5.3153    0.0000 H   0  0  0  0  0  0  0  0  0  0  0  0
   10.6603    5.0884    0.0000 H   0  0  0  0  0  0  0  0  0  0  0  0
   10.8872    4.2414    0.0000 H   0  0  0  0  0  0  0  0  0  0  0  0
    8.3183   10.9876    0.0000 H   0  0  0  0  0  0  0  0  0  0  0  0
    8.0946   10.1398    0.0000 H   0  0  0  0  0  0  0  0  0  0  0  0
    8.9424    9.9161    0.0000 H   0  0  0  0  0  0  0  0  0  0  0  0
   10.1106   11.9576    0.0000 H   0  0  0  0  0  0  0  0  0  0  0  0
    9.4882   12.5752    0.0000 H   0  0  0  0  0  0  0  0  0  0  0  0
    8.8706   11.9528    0.0000 H   0  0  0  0  0  0  0  0  0  0  0  0
   10.6603    2.0884    0.0000 H   0  0  0  0  0  0  0  0  0  0  0  0
   13.4853    0.7414    0.0000 H   0  0  0  0  0  0  0  0  0  0  0  0
   14.3322    0.9684    0.0000 H   0  0  0  0  0  0  0  0  0  0  0  0
   14.1053    1.8153    0.0000 H   0  0  0  0  0  0  0  0  0  0  0  0
   12.6738    1.1707    0.0000 H   0  0  0  0  0  0  0  0  0  0  0  0
   12.2753    1.8610    0.0000 H   0  0  0  0  0  0  0  0  0  0  0  0
   12.6002    0.5884    0.0000 H   0  0  0  0  0  0  0  0  0  0  0  0
    9.7942    0.5884    0.0000 H   0  0  0  0  0  0  0  0  0  0  0  0
   10.6603   -0.5316    0.0000 H   0  0  0  0  0  0  0  0  0  0  0  0
    9.1551    0.3153    0.0000 H   0  0  0  0  0  0  0  0  0  0  0  0
    8.9282   -0.5316    0.0000 H   0  0  0  0  0  0  0  0  0  0  0  0
    9.7751   -0.7586    0.0000 H   0  0  0  0  0  0  0  0  0  0  0  0
   10.3312   -1.1016    0.0000 H   0  0  0  0  0  0  0  0  0  0  0  0
   14.1053   -0.2586    0.0000 H   0  0  0  0  0  0  0  0  0  0  0  0
   14.3322    0.5884    0.0000 H   0  0  0  0  0  0  0  0  0  0  0  0
   13.4853    0.8153    0.0000 H   0  0  0  0  0  0  0  0  0  0  0  0
    9.8637   -0.7467    0.0000 H   0  0  0  0  0  0  0  0  0  0  0  0
    9.0666   -0.7467    0.0000 H   0  0  0  0  0  0  0  0  0  0  0  0
    8.5991   -1.1016    0.0000 H   0  0  0  0  0  0  0  0  0  0  0  0
   10.0021   -3.5316    0.0000 H   0  0  0  0  0  0  0  0  0  0  0  0
    8.5991   -3.3416    0.0000 H   0  0  0  0  0  0  0  0  0  0  0  0
    8.8451   -4.2216    0.0000 H   0  0  0  0  0  0  0  0  0  0  0  0
    9.4651   -4.8416    0.0000 H   0  0  0  0  0  0  0  0  0  0  0  0
   10.0851   -4.2216    0.0000 H   0  0  0  0  0  0  0  0  0  0  0  0
    7.1962   -3.9116    0.0000 H   0  0  0  0  0  0  0  0  0  0  0  0
    9.2097   -4.8293    0.0000 H   0  0  0  0  0  0  0  0  0  0  0  0
    8.8112   -4.1390    0.0000 H   0  0  0  0  0  0  0  0  0  0  0  0
    8.3531   -0.2216    0.0000 H   0  0  0  0  0  0  0  0  0  0  0  0
    7.7331    0.3984    0.0000 H   0  0  0  0  0  0  0  0  0  0  0  0
    7.1131   -0.2216    0.0000 H   0  0  0  0  0  0  0  0  0  0  0  0
    8.5991   -6.3416    0.0000 H   0  0  0  0  0  0  0  0  0  0  0  0
    7.1962   -6.5316    0.0000 H   0  0  0  0  0  0  0  0  0  0  0  0
    6.3301   -5.4116    0.0000 H   0  0  0  0  0  0  0  0  0  0  0  0
    7.4040   -8.0316    0.0000 H   0  0  0  0  0  0  0  0  0  0  0  0
    6.8671   -9.3416    0.0000 H   0  0  0  0  0  0  0  0  0  0  0  0
    5.1350   -9.3416    0.0000 H   0  0  0  0  0  0  0  0  0  0  0  0
    5.4641   -9.5316    0.0000 H   0  0  0  0  0  0  0  0  0  0  0  0
    5.6910   -5.6847    0.0000 H   0  0  0  0  0  0  0  0  0  0  0  0
    5.4641   -6.5316    0.0000 H   0  0  0  0  0  0  0  0  0  0  0  0
    6.3110   -6.7586    0.0000 H   0  0  0  0  0  0  0  0  0  0  0  0
    5.1350   -7.1016    0.0000 H   0  0  0  0  0  0  0  0  0  0  0  0
    3.7320   -9.9116    0.0000 H   0  0  0  0  0  0  0  0  0  0  0  0
    3.6584   -7.1140    0.0000 H   0  0  0  0  0  0  0  0  0  0  0  0
    4.0569   -7.8042    0.0000 H   0  0  0  0  0  0  0  0  0  0  0  0
    3.4030  -10.1016    0.0000 H   0  0  0  0  0  0  0  0  0  0  0  0
    3.4030  -12.3416    0.0000 H   0  0  0  0  0  0  0  0  0  0  0  0
    4.8059  -12.5316    0.0000 H   0  0  0  0  0  0  0  0  0  0  0  0
    5.6720  -11.4116    0.0000 H   0  0  0  0  0  0  0  0  0  0  0  0
   10.6412   -6.2586    0.0000 H   0  0  0  0  0  0  0  0  0  0  0  0
   10.8681   -5.4116    0.0000 H   0  0  0  0  0  0  0  0  0  0  0  0
   10.0212   -5.1847    0.0000 H   0  0  0  0  0  0  0  0  0  0  0  0
    8.2700   -8.9116    0.0000 H   0  0  0  0  0  0  0  0  0  0  0  0
    6.5380  -10.5316    0.0000 H   0  0  0  0  0  0  0  0  0  0  0  0
    5.6025  -12.6966    0.0000 H   0  0  0  0  0  0  0  0  0  0  0  0
    6.3996  -12.6966    0.0000 H   0  0  0  0  0  0  0  0  0  0  0  0
    2.0000  -10.5316    0.0000 H   0  0  0  0  0  0  0  0  0  0  0  0
    3.7320   -5.9116    0.0000 H   0  0  0  0  0  0  0  0  0  0  0  0
    2.5369  -12.8416    0.0000 H   0  0  0  0  0  0  0  0  0  0  0  0
    4.8059  -13.5316    0.0000 H   0  0  0  0  0  0  0  0  0  0  0  0
    7.4040  -12.0316    0.0000 H   0  0  0  0  0  0  0  0  0  0  0  0
 30  1  1  1  0  0  0
  1114  1  0  0  0  0
 32  2  1  1  0  0  0
  2118  1  0  0  0  0
 34  3  1  1  0  0  0
  3 51  1  0  0  0  0
 35  4  1  1  0  0  0
  4124  1  0  0  0  0
 49  5  1  1  0  0  0
 52  5  1  1  0  0  0
  6 46  2  0  0  0  0
  7 51  2  0  0  0  0
  8 52  1  0  0  0  0
  8 57  1  0  0  0  0
 56  9  1  6  0  0  0
  9 65  1  0  0  0  0
 58 10  1  6  0  0  0
 64 10  1  1  0  0  0
 11 64  1  0  0  0  0
 11 68  1  0  0  0  0
 67 12  1  6  0  0  0
 12 72  1  0  0  0  0
 69 13  1  6  0  0  0
 71 13  1  6  0  0  0
 14 71  1  0  0  0  0
 14 75  1  0  0  0  0
 74 15  1  1  0  0  0
 15 80  1  0  0  0  0
 76 16  1  1  0  0  0
 78 16  1  1  0  0  0
 17 78  1  0  0  0  0
 17 83  1  0  0  0  0
 82 18  1  1  0  0  0
 84 18  1  1  0  0  0
 81 19  1  1  0  0  0
 19 95  1  0  0  0  0
 20 84  1  0  0  0  0
 20 89  1  0  0  0  0
 86 21  1  6  0  0  0
 90 21  1  6  0  0  0
 85 22  1  6  0  0  0
 22199  1  0  0  0  0
 87 23  1  1  0  0  0
 23200  1  0  0  0  0
 24 90  1  0  0  0  0
 24 96  1  0  0  0  0
 25 91  1  0  0  0  0
 25204  1  0  0  0  0
 92 26  1  1  0  0  0
 26203  1  0  0  0  0
 93 27  1  6  0  0  0
 27205  1  0  0  0  0
 94 28  1  1  0  0  0
 28206  1  0  0  0  0
 29 97  1  0  0  0  0
 29207  1  0  0  0  0
 30 31  1  0  0  0  0
 30 32  1  0  0  0  0
 30 38  1  0  0  0  0
 31 34  1  0  0  0  0
 31 35  1  0  0  0  0
 31 41  1  1  0  0  0
 32 33  1  0  0  0  0
 32 40  1  0  0  0  0
 33 36  1  0  0  0  0
 33 37  1  0  0  0  0
 33 98  1  6  0  0  0
 34 37  1  0  0  0  0
 34 99  1  0  0  0  0
 35 39  1  0  0  0  0
 35 46  1  0  0  0  0
 36 42  1  0  0  0  0
 36 43  1  0  0  0  0
 36 45  1  1  0  0  0
 37100  1  0  0  0  0
 37101  1  0  0  0  0
 38 39  1  0  0  0  0
 38102  1  0  0  0  0
 38103  1  0  0  0  0
 39104  1  0  0  0  0
 39105  1  0  0  0  0
 40 44  1  0  0  0  0
 40106  1  0  0  0  0
 40107  1  0  0  0  0
 41108  1  0  0  0  0
 41109  1  0  0  0  0
 41110  1  0  0  0  0
 42 44  2  0  0  0  0
 42 47  1  0  0  0  0
 43 48  1  0  0  0  0
 43111  1  0  0  0  0
 43112  1  0  0  0  0
 44113  1  0  0  0  0
 45115  1  0  0  0  0
 45116  1  0  0  0  0
 45117  1  0  0  0  0
 46 50  1  0  0  0  0
 47 49  1  0  0  0  0
 47119  1  0  0  0  0
 47120  1  0  0  0  0
 48 49  1  0  0  0  0
 48121  1  0  0  0  0
 48122  1  0  0  0  0
 49123  1  0  0  0  0
 50125  1  0  0  0  0
 50126  1  0  0  0  0
 50127  1  0  0  0  0
 51 53  1  0  0  0  0
 52 54  1  0  0  0  0
 52128  1  0  0  0  0
 53 55  2  0  0  0  0
 53129  1  0  0  0  0
 54 56  1  0  0  0  0
 54130  1  0  0  0  0
 54131  1  0  0  0  0
 55 59  1  0  0  0  0
 55 60  1  0  0  0  0
 56 58  1  0  0  0  0
 56132  1  0  0  0  0
 57 58  1  0  0  0  0
 57 61  1  1  0  0  0
 57133  1  0  0  0  0
 58134  1  0  0  0  0
 59 62  1  0  0  0  0
 59 63  1  0  0  0  0
 59135  1  0  0  0  0
 60136  1  0  0  0  0
 60137  1  0  0  0  0
 60138  1  0  0  0  0
 61139  1  0  0  0  0
 61140  1  0  0  0  0
 61141  1  0  0  0  0
 62142  1  0  0  0  0
 62143  1  0  0  0  0
 62144  1  0  0  0  0
 63145  1  0  0  0  0
 63146  1  0  0  0  0
 63147  1  0  0  0  0
 64 66  1  0  0  0  0
 64148  1  0  0  0  0
 65149  1  0  0  0  0
 65150  1  0  0  0  0
 65151  1  0  0  0  0
 66 67  1  0  0  0  0
 66152  1  0  0  0  0
 66153  1  0  0  0  0
 67 69  1  0  0  0  0
 67154  1  0  0  0  0
 68 69  1  0  0  0  0
 68 70  1  6  0  0  0
 68155  1  0  0  0  0
 69156  1  0  0  0  0
 70157  1  0  0  0  0
 70158  1  0  0  0  0
 70159  1  0  0  0  0
 71 73  1  0  0  0  0
 71160  1  0  0  0  0
 72161  1  0  0  0  0
 72162  1  0  0  0  0
 72163  1  0  0  0  0
 73 74  1  0  0  0  0
 73164  1  0  0  0  0
 73165  1  0  0  0  0
 74 76  1  0  0  0  0
 74166  1  0  0  0  0
 75 76  1  0  0  0  0
 75 77  1  6  0  0  0
 75167  1  0  0  0  0
 76168  1  0  0  0  0
 77169  1  0  0  0  0
 77170  1  0  0  0  0
 77171  1  0  0  0  0
 78 79  1  0  0  0  0
 78172  1  0  0  0  0
 79 81  1  0  0  0  0
 79173  1  0  0  0  0
 79174  1  0  0  0  0
 80175  1  0  0  0  0
 80176  1  0  0  0  0
 80177  1  0  0  0  0
 81 82  1  0  0  0  0
 81178  1  0  0  0  0
 82 83  1  0  0  0  0
 82179  1  0  0  0  0
 83 88  1  6  0  0  0
 83180  1  0  0  0  0
 84 85  1  0  0  0  0
 84181  1  0  0  0  0
 85 87  1  0  0  0  0
 85182  1  0  0  0  0
 86 87  1  0  0  0  0
 86 89  1  0  0  0  0
 86183  1  0  0  0  0
 87184  1  0  0  0  0
 88185  1  0  0  0  0
 88186  1  0  0  0  0
 88187  1  0  0  0  0
 89 91  1  1  0  0  0
 89188  1  0  0  0  0
 90 92  1  0  0  0  0
 90189  1  0  0  0  0
 91190  1  0  0  0  0
 91191  1  0  0  0  0
 92 93  1  0  0  0  0
 92192  1  0  0  0  0
 93 94  1  0  0  0  0
 93193  1  0  0  0  0
 94 96  1  0  0  0  0
 94194  1  0  0  0  0
 95196  1  0  0  0  0
 95197  1  0  0  0  0
 95198  1  0  0  0  0
 96 97  1  6  0  0  0
 96195  1  0  0  0  0
 97201  1  0  0  0  0
 97202  1  0  0  0  0
M  END
> <PUBCHEM_COMPOUND_CID>
56642569

> <PUBCHEM_COMPOUND_CANONICALIZED>
1

> <PUBCHEM_CACTVS_COMPLEXITY>
2720

> <PUBCHEM_CACTVS_HBOND_ACCEPTOR>
29

> <PUBCHEM_CACTVS_HBOND_DONOR>
10

> <PUBCHEM_CACTVS_ROTATABLE_BOND>
23

> <PUBCHEM_CACTVS_SUBSKEYS>
AAADcfB8PgAAAAAAAAAAAAAAAAAAAYAAAAA0aJEiQAAAAGCAAAAAGgAACAAAD1SwgAMCCAAABgCIAqDSCAIAAAAgAAAACAFAAEgRFBIAIQAiUAAFwAAPIQPK7PzPgAAAAAAAAADCAAYQADCAAYQADAAAAA==

> <PUBCHEM_IUPAC_OPENEYE_NAME>
[(3S,8S,9R,10R,12R,13S,14R,17S)-17-acetyl-3-[(2R,4S,5R,6R)-5-[(2S,4S,5R,6S)-5-[(2S,4S,5R,6R)-5-[(2S,4R,5S,6S)-5-[(2S,3R,4R,5S,6R)-3,4-dihydroxy-6-(hydroxymethyl)-5-[(2S,3R,4S,5S,6R)-3,4,5-trihydroxy-6-(hydroxymethyl)tetrahydropyran-2-yl]oxy-tetrahydropyran-2-yl]oxy-4-methoxy-6-methyl-tetrahydropyran-2-yl]oxy-4-methoxy-6-methyl-tetrahydropyran-2-yl]oxy-4-methoxy-6-methyl-tetrahydropyran-2-yl]oxy-4-methoxy-6-methyl-tetrahydropyran-2-yl]oxy-8,14,17-trihydroxy-10,13-dimethyl-1,2,3,4,7,9,11,12,15,16-decahydrocyclopenta[a]phenanthren-12-yl] (E)-3,4-dimethylpent-2-enoate

> <PUBCHEM_IUPAC_CAS_NAME>
(E)-3,4-dimethyl-2-pentenoic acid [(3S,8S,9R,10R,12R,13S,14R,17S)-17-acetyl-3-[[(2R,4S,5R,6R)-5-[[(2S,4S,5R,6S)-5-[[(2S,4S,5R,6R)-5-[[(2S,4R,5S,6S)-5-[[(2S,3R,4R,5S,6R)-3,4-dihydroxy-6-(hydroxymethyl)-5-[[(2S,3R,4S,5S,6R)-3,4,5-trihydroxy-6-(hydroxymethyl)-2-oxanyl]oxy]-2-oxanyl]oxy]-4-methoxy-6-methyl-2-oxanyl]oxy]-4-methoxy-6-methyl-2-oxanyl]oxy]-4-methoxy-6-methyl-2-oxanyl]oxy]-4-methoxy-6-methyl-2-oxanyl]oxy]-8,14,17-trihydroxy-10,13-dimethyl-1,2,3,4,7,9,11,12,15,16-decahydrocyclopenta[a]phenanthren-12-yl] ester

> <PUBCHEM_IUPAC_NAME_MARKUP>
[(3<I>S</I>,8<I>S</I>,9<I>R</I>,10<I>R</I>,12<I>R</I>,13<I>S</I>,14<I>R</I>,17<I>S</I>)-17-acetyl-3-[(2<I>R</I>,4<I>S</I>,5<I>R</I>,6<I>R</I>)-5-[(2<I>S</I>,4<I>S</I>,5<I>R</I>,6<I>S</I>)-5-[(2<I>S</I>,4<I>S</I>,5<I>R</I>,6<I>R</I>)-5-[(2<I>S</I>,4<I>R</I>,5<I>S</I>,6<I>S</I>)-5-[(2<I>S</I>,3<I>R</I>,4<I>R</I>,5<I>S</I>,6<I>R</I>)-3,4-dihydroxy-6-(hydroxymethyl)-5-[(2<I>S</I>,3<I>R</I>,4<I>S</I>,5<I>S</I>,6<I>R</I>)-3,4,5-trihydroxy-6-(hydroxymethyl)oxan-2-yl]oxyoxan-2-yl]oxy-4-methoxy-6-methyloxan-2-yl]oxy-4-methoxy-6-methyloxan-2-yl]oxy-4-methoxy-6-methyloxan-2-yl]oxy-4-methoxy-6-methyloxan-2-yl]oxy-8,14,17-trihydroxy-10,13-dimethyl-1,2,3,4,7,9,11,12,15,16-decahydrocyclopenta[a]phenanthren-12-yl] (<I>E</I>)-3,4-dimethylpent-2-enoate

> <PUBCHEM_IUPAC_NAME>
[(3S,8S,9R,10R,12R,13S,14R,17S)-17-acetyl-3-[(2R,4S,5R,6R)-5-[(2S,4S,5R,6S)-5-[(2S,4S,5R,6R)-5-[(2S,4R,5S,6S)-5-[(2S,3R,4R,5S,6R)-3,4-dihydroxy-6-(hydroxymethyl)-5-[(2S,3R,4S,5S,6R)-3,4,5-trihydroxy-6-(hydroxymethyl)oxan-2-yl]oxyoxan-2-yl]oxy-4-methoxy-6-methyloxan-2-yl]oxy-4-methoxy-6-methyloxan-2-yl]oxy-4-methoxy-6-methyloxan-2-yl]oxy-4-methoxy-6-methyloxan-2-yl]oxy-8,14,17-trihydroxy-10,13-dimethyl-1,2,3,4,7,9,11,12,15,16-decahydrocyclopenta[a]phenanthren-12-yl] (E)-3,4-dimethylpent-2-enoate

> <PUBCHEM_IUPAC_SYSTEMATIC_NAME>
[(3S,8S,9R,10R,12R,13S,14R,17S)-17-ethanoyl-3-[(2R,4S,5R,6R)-5-[(2S,4S,5R,6S)-5-[(2S,4S,5R,6R)-5-[(2S,4R,5S,6S)-5-[(2S,3R,4R,5S,6R)-6-(hydroxymethyl)-5-[(2S,3R,4S,5S,6R)-6-(hydroxymethyl)-3,4,5-tris(oxidanyl)oxan-2-yl]oxy-3,4-bis(oxidanyl)oxan-2-yl]oxy-4-methoxy-6-methyl-oxan-2-yl]oxy-4-methoxy-6-methyl-oxan-2-yl]oxy-4-methoxy-6-methyl-oxan-2-yl]oxy-4-methoxy-6-methyl-oxan-2-yl]oxy-10,13-dimethyl-8,14,17-tris(oxidanyl)-1,2,3,4,7,9,11,12,15,16-decahydrocyclopenta[a]phenanthren-12-yl] (E)-3,4-dimethylpent-2-enoate

> <PUBCHEM_IUPAC_TRADITIONAL_NAME>
(E)-3,4-dimethylpent-2-enoic acid [(3S,8S,9R,10R,12R,13S,14R,17S)-17-acetyl-3-[(2R,4S,5R,6R)-5-[(2S,4S,5R,6S)-5-[(2S,4S,5R,6R)-5-[(2S,4R,5S,6S)-5-[(2S,3R,4R,5S,6R)-3,4-dihydroxy-6-methylol-5-[(2S,3R,4S,5S,6R)-3,4,5-trihydroxy-6-methylol-tetrahydropyran-2-yl]oxy-tetrahydropyran-2-yl]oxy-4-methoxy-6-methyl-tetrahydropyran-2-yl]oxy-4-methoxy-6-methyl-tetrahydropyran-2-yl]oxy-4-methoxy-6-methyl-tetrahydropyran-2-yl]oxy-4-methoxy-6-methyl-tetrahydropyran-2-yl]oxy-8,14,17-trihydroxy-10,13-dimethyl-1,2,3,4,7,9,11,12,15,16-decahydrocyclopenta[a]phenanthren-12-yl] ester

> <PUBCHEM_IUPAC_INCHI>
InChI=1S/C68H110O29/c1-30(2)31(3)21-47(72)92-46-27-45-64(9)17-16-38(22-37(64)15-18-67(45,79)68(80)20-19-66(78,36(8)71)65(46,68)10)89-48-23-39(81-11)57(32(4)85-48)93-49-24-40(82-12)58(33(5)86-49)94-50-25-41(83-13)59(34(6)87-50)95-51-26-42(84-14)60(35(7)88-51)96-63-56(77)54(75)61(44(29-70)91-63)97-62-55(76)53(74)52(73)43(28-69)90-62/h15,21,30,32-35,38-46,48-63,69-70,73-80H,16-20,22-29H2,1-14H3/b31-21+/t32-,33+,34-,35+,38+,39+,40+,41+,42-,43-,44-,45-,46-,48+,49+,50+,51+,52-,53+,54-,55-,56-,57-,58-,59-,60+,61-,62+,63+,64+,65-,66-,67+,68-/m1/s1

> <PUBCHEM_IUPAC_INCHIKEY>
KNGNAGVHOCYPAP-KOKCVREDSA-N

> <PUBCHEM_XLOGP3_AA>
0.3

> <PUBCHEM_EXACT_MASS>
1390.713278

> <PUBCHEM_MOLECULAR_FORMULA>
C68H110O29

> <PUBCHEM_MOLECULAR_WEIGHT>
1391.6

> <PUBCHEM_OPENEYE_CAN_SMILES>
CC1C(C(CC(O1)OC2CCC3(C4CC(C5(C(CCC5(C4(CC=C3C2)O)O)(C(=O)C)O)C)OC(=O)C=C(C)C(C)C)C)OC)OC6CC(C(C(O6)C)OC7CC(C(C(O7)C)OC8CC(C(C(O8)C)OC9C(C(C(C(O9)CO)OC1C(C(C(C(O1)CO)O)O)O)O)O)OC)OC)OC

> <PUBCHEM_OPENEYE_ISO_SMILES>
C[C@@H]1[C@H]([C@H](C[C@@H](O1)O[C@H]2CC[C@@]3([C@H]4C[C@H]([C@@]5([C@@](CC[C@@]5([C@@]4(CC=C3C2)O)O)(C(=O)C)O)C)OC(=O)/C=C(\C)/C(C)C)C)OC)O[C@H]6C[C@@H]([C@@H]([C@@H](O6)C)O[C@H]7C[C@@H]([C@@H]([C@H](O7)C)O[C@H]8C[C@H]([C@H]([C@@H](O8)C)O[C@H]9[C@@H]([C@H]([C@@H]([C@H](O9)CO)O[C@H]1[C@@H]([C@H]([C@@H]([C@H](O1)CO)O)O)O)O)O)OC)OC)OC

> <PUBCHEM_CACTVS_TPSA>
393

> <PUBCHEM_MONOISOTOPIC_WEIGHT>
1390.713278

> <PUBCHEM_TOTAL_CHARGE>
0

> <PUBCHEM_HEAVY_ATOM_COUNT>
97

> <PUBCHEM_ATOM_DEF_STEREO_COUNT>
34

> <PUBCHEM_ATOM_UDEF_STEREO_COUNT>
0

> <PUBCHEM_BOND_DEF_STEREO_COUNT>
1

> <PUBCHEM_BOND_UDEF_STEREO_COUNT>
0

> <PUBCHEM_ISOTOPIC_ATOM_COUNT>
0

> <PUBCHEM_COMPONENT_COUNT>
1

> <PUBCHEM_CACTVS_TAUTO_COUNT>
-1

> <PUBCHEM_COORDINATE_TYPE>
1
5
255

> <PUBCHEM_BONDANNOTATIONS>
30  1  5
58  10  6
64  10  5
67  12  6
69  13  6
71  13  6
74  15  5
76  16  5
78  16  5
82  18  5
84  18  5
81  19  5
32  2  5
86  21  6
90  21  6
85  22  6
87  23  5
92  26  5
93  27  6
94  28  5
34  3  5
31  41  5
33  98  6
36  45  5
35  4  5
49  5  5
52  5  5
57  61  5
68  70  6
75  77  6
83  88  6
89  91  5
56  9  6
96  97  6

$$$$
