102165353
  -OEChem-09022014102D

184192  0     1  0  0  0  0  0999 V2000
   25.5882    2.1485    0.0000 O   0  0  0  0  0  0  0  0  0  0  0  0
   25.0242    2.4770    0.0000 O   0  0  0  0  0  0  0  0  0  0  0  0
   24.3669   -1.2866    0.0000 O   0  0  0  0  0  0  0  0  0  0  0  0
   25.8727   -1.0487    0.0000 O   0  0  0  0  0  0  0  0  0  0  0  0
   19.8574    3.2832    0.0000 O   0  0  0  0  0  0  0  0  0  0  0  0
   26.8849   -1.6821    0.0000 O   0  0  0  0  0  0  0  0  0  0  0  0
   22.6349   -1.2799    0.0000 O   0  0  0  0  0  0  0  0  0  0  0  0
   18.1254    3.2832    0.0000 O   0  0  0  0  0  0  0  0  0  0  0  0
   18.1254    0.2832    0.0000 O   0  0  0  0  0  0  0  0  0  0  0  0
   16.3933    1.2832    0.0000 O   0  0  0  0  0  0  0  0  0  0  0  0
   14.6613    1.2832    0.0000 O   0  0  0  0  0  0  0  0  0  0  0  0
   14.6613    4.2832    0.0000 O   0  0  0  0  0  0  0  0  0  0  0  0
   12.9292    3.2832    0.0000 O   0  0  0  0  0  0  0  0  0  0  0  0
   11.1972    3.2832    0.0000 O   0  0  0  0  0  0  0  0  0  0  0  0
    9.4651    1.2832    0.0000 O   0  0  0  0  0  0  0  0  0  0  0  0
   11.1972    0.2832    0.0000 O   0  0  0  0  0  0  0  0  0  0  0  0
    8.5991    2.7832    0.0000 O   0  0  0  0  0  0  0  0  0  0  0  0
    6.0010    3.2832    0.0000 O   0  0  0  0  0  0  0  0  0  0  0  0
    6.0010    1.2832    0.0000 O   0  0  0  0  0  0  0  0  0  0  0  0
    5.1350    1.7832    0.0000 O   0  0  0  0  0  0  0  0  0  0  0  0
    2.5369    3.2832    0.0000 O   0  0  0  0  0  0  0  0  0  0  0  0
    2.5369    1.2832    0.0000 O   0  0  0  0  0  0  0  0  0  0  0  0
   25.2426    1.2101    0.0000 C   0  0  2  0  0  0  0  0  0  0  0  0
   25.2387    0.2101    0.0000 C   0  0  2  0  0  0  0  0  0  0  0  0
   24.3785    1.7134    0.0000 C   0  0  2  0  0  0  0  0  0  0  0  0
   23.5105    1.2168    0.0000 C   0  0  1  0  0  0  0  0  0  0  0  0
   24.3708   -0.2866    0.0000 C   0  0  1  0  0  0  0  0  0  0  0  0
   26.1838   -0.0983    0.0000 C   0  0  2  0  0  0  0  0  0  0  0  0
   22.6025    1.7271    0.0000 C   0  0  2  0  0  0  0  0  0  0  0  0
   23.5067    0.2168    0.0000 C   0  0  0  0  0  0  0  0  0  0  0  0
   26.1900    1.5112    0.0000 C   0  0  0  0  0  0  0  0  0  0  0  0
   26.7705    0.7042    0.0000 C   0  0  0  0  0  0  0  0  0  0  0  0
   24.3986    2.7549    0.0000 C   0  0  0  0  0  0  0  0  0  0  0  0
   25.2349   -0.7899    0.0000 C   0  0  0  0  0  0  0  0  0  0  0  0
   22.5985    2.7687    0.0000 C   0  0  0  0  0  0  0  0  0  0  0  0
   21.6735    1.1666    0.0000 C   0  0  0  0  0  0  0  0  0  0  0  0
   23.5026    3.2861    0.0000 C   0  0  0  0  0  0  0  0  0  0  0  0
   22.6064    0.7271    0.0000 C   0  0  0  0  0  0  0  0  0  0  0  0
   26.9915   -0.6878    0.0000 C   0  0  0  0  0  0  0  0  0  0  0  0
   21.6652    3.3221    0.0000 C   0  0  0  0  0  0  0  0  0  0  0  0
   20.7277    1.6982    0.0000 C   0  0  0  0  0  0  0  0  0  0  0  0
   20.7235    2.7832    0.0000 C   0  0  2  0  0  0  0  0  0  0  0  0
   27.9059   -0.2830    0.0000 C   0  0  0  0  0  0  0  0  0  0  0  0
   23.4990   -1.7832    0.0000 C   0  0  0  0  0  0  0  0  0  0  0  0
   18.9914    2.7832    0.0000 C   0  0  2  0  0  0  0  0  0  0  0  0
   23.4951   -2.7832    0.0000 C   0  0  0  0  0  0  0  0  0  0  0  0
   18.9914    1.7832    0.0000 C   0  0  0  0  0  0  0  0  0  0  0  0
   22.6272   -3.2799    0.0000 C   0  0  0  0  0  0  0  0  0  0  0  0
   18.1254    1.2832    0.0000 C   0  0  1  0  0  0  0  0  0  0  0  0
   17.2594    2.7832    0.0000 C   0  0  1  0  0  0  0  0  0  0  0  0
   17.2594    1.7832    0.0000 C   0  0  1  0  0  0  0  0  0  0  0  0
   22.6233   -4.2799    0.0000 C   0  0  0  0  0  0  0  0  0  0  0  0
   21.7631   -2.7765    0.0000 C   0  0  0  0  0  0  0  0  0  0  0  0
   16.3933    3.2832    0.0000 C   0  0  0  0  0  0  0  0  0  0  0  0
   21.7554   -4.7765    0.0000 C   0  0  0  0  0  0  0  0  0  0  0  0
   23.4874   -4.7832    0.0000 C   0  0  0  0  0  0  0  0  0  0  0  0
   15.5273    1.7832    0.0000 C   0  0  2  0  0  0  0  0  0  0  0  0
   15.5273    2.7832    0.0000 C   0  0  0  0  0  0  0  0  0  0  0  0
   14.6613    3.2832    0.0000 C   0  0  2  0  0  0  0  0  0  0  0  0
   13.7953    1.7832    0.0000 C   0  0  1  0  0  0  0  0  0  0  0  0
   13.7953    2.7832    0.0000 C   0  0  1  0  0  0  0  0  0  0  0  0
   12.9292    1.2832    0.0000 C   0  0  0  0  0  0  0  0  0  0  0  0
   12.0632    2.7832    0.0000 C   0  0  2  0  0  0  0  0  0  0  0  0
   15.5273    4.7832    0.0000 C   0  0  0  0  0  0  0  0  0  0  0  0
   12.0632    1.7832    0.0000 C   0  0  0  0  0  0  0  0  0  0  0  0
   11.1972    1.2832    0.0000 C   0  0  2  0  0  0  0  0  0  0  0  0
   10.3312    2.7832    0.0000 C   0  0  2  0  0  0  0  0  0  0  0  0
   10.3312    1.7832    0.0000 C   0  0  2  0  0  0  0  0  0  0  0  0
    9.4651    3.2832    0.0000 C   0  0  0  0  0  0  0  0  0  0  0  0
    8.5991    1.7832    0.0000 C   0  0  2  0  0  0  0  0  0  0  0  0
    7.7331    1.2832    0.0000 C   0  0  0  0  0  0  0  0  0  0  0  0
    6.8671    1.7832    0.0000 C   0  0  1  0  0  0  0  0  0  0  0  0
    6.8671    2.7832    0.0000 C   0  0  1  0  0  0  0  0  0  0  0  0
    7.7331    3.2832    0.0000 C   0  0  1  0  0  0  0  0  0  0  0  0
   12.0632   -0.2168    0.0000 C   0  0  0  0  0  0  0  0  0  0  0  0
    5.1350    2.7832    0.0000 C   0  0  2  0  0  0  0  0  0  0  0  0
    7.7331    4.2832    0.0000 C   0  0  0  0  0  0  0  0  0  0  0  0
    4.2690    3.2832    0.0000 C   0  0  0  0  0  0  0  0  0  0  0  0
    3.4030    2.7832    0.0000 C   0  0  2  0  0  0  0  0  0  0  0  0
    3.4030    1.7832    0.0000 C   0  0  2  0  0  0  0  0  0  0  0  0
    4.2690    1.2832    0.0000 C   0  0  2  0  0  0  0  0  0  0  0  0
    6.0010    0.2832    0.0000 C   0  0  0  0  0  0  0  0  0  0  0  0
    4.2690    0.2832    0.0000 C   0  0  0  0  0  0  0  0  0  0  0  0
    2.5369    4.2832    0.0000 C   0  0  0  0  0  0  0  0  0  0  0  0
   24.2450    0.7889    0.0000 H   0  0  0  0  0  0  0  0  0  0  0  0
   23.8327   -0.5945    0.0000 H   0  0  0  0  0  0  0  0  0  0  0  0
   22.8965    0.3268    0.0000 H   0  0  0  0  0  0  0  0  0  0  0  0
   23.2924   -0.3650    0.0000 H   0  0  0  0  0  0  0  0  0  0  0  0
   26.7285    1.8183    0.0000 H   0  0  0  0  0  0  0  0  0  0  0  0
   25.9411    2.0790    0.0000 H   0  0  0  0  0  0  0  0  0  0  0  0
   27.2297    0.2877    0.0000 H   0  0  0  0  0  0  0  0  0  0  0  0
   27.2329    1.1171    0.0000 H   0  0  0  0  0  0  0  0  0  0  0  0
   25.0073    2.6370    0.0000 H   0  0  0  0  0  0  0  0  0  0  0  0
   24.6188    3.3344    0.0000 H   0  0  0  0  0  0  0  0  0  0  0  0
   24.6149   -0.7875    0.0000 H   0  0  0  0  0  0  0  0  0  0  0  0
   25.2325   -1.4099    0.0000 H   0  0  0  0  0  0  0  0  0  0  0  0
   25.8549   -0.7923    0.0000 H   0  0  0  0  0  0  0  0  0  0  0  0
   21.2817    0.6861    0.0000 H   0  0  0  0  0  0  0  0  0  0  0  0
   22.0799    0.6984    0.0000 H   0  0  0  0  0  0  0  0  0  0  0  0
   23.5073    3.9060    0.0000 H   0  0  0  0  0  0  0  0  0  0  0  0
   26.1992    2.2538    0.0000 H   0  0  0  0  0  0  0  0  0  0  0  0
   21.9864    0.7247    0.0000 H   0  0  0  0  0  0  0  0  0  0  0  0
   22.6087    0.1071    0.0000 H   0  0  0  0  0  0  0  0  0  0  0  0
   23.2263    0.7295    0.0000 H   0  0  0  0  0  0  0  0  0  0  0  0
   25.1342    3.0871    0.0000 H   0  0  0  0  0  0  0  0  0  0  0  0
   22.0680    3.7934    0.0000 H   0  0  0  0  0  0  0  0  0  0  0  0
   21.2697    3.7996    0.0000 H   0  0  0  0  0  0  0  0  0  0  0  0
   20.1164    1.8019    0.0000 H   0  0  0  0  0  0  0  0  0  0  0  0
   20.5208    1.1137    0.0000 H   0  0  0  0  0  0  0  0  0  0  0  0
   20.1871    2.4722    0.0000 H   0  0  0  0  0  0  0  0  0  0  0  0
   26.2866   -1.5103    0.0000 H   0  0  0  0  0  0  0  0  0  0  0  0
   28.1569   -0.8499    0.0000 H   0  0  0  0  0  0  0  0  0  0  0  0
   28.4729   -0.0320    0.0000 H   0  0  0  0  0  0  0  0  0  0  0  0
   27.6550    0.2839    0.0000 H   0  0  0  0  0  0  0  0  0  0  0  0
   18.9914    3.4032    0.0000 H   0  0  0  0  0  0  0  0  0  0  0  0
   24.0309   -3.0953    0.0000 H   0  0  0  0  0  0  0  0  0  0  0  0
   19.2035    1.2006    0.0000 H   0  0  0  0  0  0  0  0  0  0  0  0
   19.6020    1.8908    0.0000 H   0  0  0  0  0  0  0  0  0  0  0  0
   18.6623    0.9732    0.0000 H   0  0  0  0  0  0  0  0  0  0  0  0
   17.2594    3.4032    0.0000 H   0  0  0  0  0  0  0  0  0  0  0  0
   16.7224    2.0932    0.0000 H   0  0  0  0  0  0  0  0  0  0  0  0
   23.1614   -3.9719    0.0000 H   0  0  0  0  0  0  0  0  0  0  0  0
   22.0752   -2.2408    0.0000 H   0  0  0  0  0  0  0  0  0  0  0  0
   21.2273   -2.4645    0.0000 H   0  0  0  0  0  0  0  0  0  0  0  0
   21.4510   -3.3123    0.0000 H   0  0  0  0  0  0  0  0  0  0  0  0
   16.7033    3.8201    0.0000 H   0  0  0  0  0  0  0  0  0  0  0  0
   15.8564    3.5932    0.0000 H   0  0  0  0  0  0  0  0  0  0  0  0
   16.0833    2.7463    0.0000 H   0  0  0  0  0  0  0  0  0  0  0  0
   18.6623   -0.0268    0.0000 H   0  0  0  0  0  0  0  0  0  0  0  0
   21.4474   -4.2384    0.0000 H   0  0  0  0  0  0  0  0  0  0  0  0
   21.2172   -5.0844    0.0000 H   0  0  0  0  0  0  0  0  0  0  0  0
   22.0633   -5.3146    0.0000 H   0  0  0  0  0  0  0  0  0  0  0  0
   23.1753   -5.3189    0.0000 H   0  0  0  0  0  0  0  0  0  0  0  0
   24.0231   -5.0953    0.0000 H   0  0  0  0  0  0  0  0  0  0  0  0
   23.7995   -4.2474    0.0000 H   0  0  0  0  0  0  0  0  0  0  0  0
   15.5273    1.1632    0.0000 H   0  0  0  0  0  0  0  0  0  0  0  0
   16.1379    2.6755    0.0000 H   0  0  0  0  0  0  0  0  0  0  0  0
   15.7394    3.3658    0.0000 H   0  0  0  0  0  0  0  0  0  0  0  0
   15.1982    3.5932    0.0000 H   0  0  0  0  0  0  0  0  0  0  0  0
   13.7953    1.1632    0.0000 H   0  0  0  0  0  0  0  0  0  0  0  0
   13.7953    3.4032    0.0000 H   0  0  0  0  0  0  0  0  0  0  0  0
   12.6192    1.8201    0.0000 H   0  0  0  0  0  0  0  0  0  0  0  0
   12.3923    0.9732    0.0000 H   0  0  0  0  0  0  0  0  0  0  0  0
   13.2392    0.7463    0.0000 H   0  0  0  0  0  0  0  0  0  0  0  0
   12.6002    2.4732    0.0000 H   0  0  0  0  0  0  0  0  0  0  0  0
   15.8373    4.2463    0.0000 H   0  0  0  0  0  0  0  0  0  0  0  0
   16.0643    5.0932    0.0000 H   0  0  0  0  0  0  0  0  0  0  0  0
   15.2173    5.3201    0.0000 H   0  0  0  0  0  0  0  0  0  0  0  0
   12.2753    1.2006    0.0000 H   0  0  0  0  0  0  0  0  0  0  0  0
   12.6738    1.8908    0.0000 H   0  0  0  0  0  0  0  0  0  0  0  0
   11.7341    0.9732    0.0000 H   0  0  0  0  0  0  0  0  0  0  0  0
    9.7942    2.0932    0.0000 H   0  0  0  0  0  0  0  0  0  0  0  0
   10.3312    3.4032    0.0000 H   0  0  0  0  0  0  0  0  0  0  0  0
    9.7751    3.8201    0.0000 H   0  0  0  0  0  0  0  0  0  0  0  0
    8.9282    3.5932    0.0000 H   0  0  0  0  0  0  0  0  0  0  0  0
    9.1551    2.7463    0.0000 H   0  0  0  0  0  0  0  0  0  0  0  0
    8.5991    1.1632    0.0000 H   0  0  0  0  0  0  0  0  0  0  0  0
    7.3346    0.8082    0.0000 H   0  0  0  0  0  0  0  0  0  0  0  0
    8.1316    0.8082    0.0000 H   0  0  0  0  0  0  0  0  0  0  0  0
    6.3301    2.0932    0.0000 H   0  0  0  0  0  0  0  0  0  0  0  0
    6.8671    3.4032    0.0000 H   0  0  0  0  0  0  0  0  0  0  0  0
    8.2700    3.5932    0.0000 H   0  0  0  0  0  0  0  0  0  0  0  0
   11.7532   -0.7537    0.0000 H   0  0  0  0  0  0  0  0  0  0  0  0
   12.6002   -0.5268    0.0000 H   0  0  0  0  0  0  0  0  0  0  0  0
   12.3732    0.3201    0.0000 H   0  0  0  0  0  0  0  0  0  0  0  0
    5.1350    3.4032    0.0000 H   0  0  0  0  0  0  0  0  0  0  0  0
    8.3531    4.2832    0.0000 H   0  0  0  0  0  0  0  0  0  0  0  0
    7.7331    4.9032    0.0000 H   0  0  0  0  0  0  0  0  0  0  0  0
    7.1131    4.2832    0.0000 H   0  0  0  0  0  0  0  0  0  0  0  0
    4.6675    3.7581    0.0000 H   0  0  0  0  0  0  0  0  0  0  0  0
    3.8705    3.7581    0.0000 H   0  0  0  0  0  0  0  0  0  0  0  0
    3.4030    3.4032    0.0000 H   0  0  0  0  0  0  0  0  0  0  0  0
    3.4030    1.1632    0.0000 H   0  0  0  0  0  0  0  0  0  0  0  0
    4.8059    0.9732    0.0000 H   0  0  0  0  0  0  0  0  0  0  0  0
    5.3810    0.2832    0.0000 H   0  0  0  0  0  0  0  0  0  0  0  0
    6.0010   -0.3368    0.0000 H   0  0  0  0  0  0  0  0  0  0  0  0
    6.6210    0.2832    0.0000 H   0  0  0  0  0  0  0  0  0  0  0  0
    3.6490    0.2832    0.0000 H   0  0  0  0  0  0  0  0  0  0  0  0
    4.2690   -0.3368    0.0000 H   0  0  0  0  0  0  0  0  0  0  0  0
    4.8890    0.2832    0.0000 H   0  0  0  0  0  0  0  0  0  0  0  0
    2.0000    1.5932    0.0000 H   0  0  0  0  0  0  0  0  0  0  0  0
    3.1569    4.2832    0.0000 H   0  0  0  0  0  0  0  0  0  0  0  0
    2.5369    4.9032    0.0000 H   0  0  0  0  0  0  0  0  0  0  0  0
    1.9169    4.2832    0.0000 H   0  0  0  0  0  0  0  0  0  0  0  0
 23  1  1  6  0  0  0
  1101  1  0  0  0  0
 25  2  1  6  0  0  0
  2105  1  0  0  0  0
 27  3  1  6  0  0  0
  3 44  1  0  0  0  0
 28  4  1  6  0  0  0
  4111  1  0  0  0  0
 42  5  1  6  0  0  0
 45  5  1  1  0  0  0
  6 39  2  0  0  0  0
  7 44  2  0  0  0  0
  8 45  1  0  0  0  0
  8 50  1  0  0  0  0
 49  9  1  6  0  0  0
  9129  1  0  0  0  0
 51 10  1  6  0  0  0
 57 10  1  6  0  0  0
 11 57  1  0  0  0  0
 11 60  1  0  0  0  0
 59 12  1  6  0  0  0
 12 64  1  0  0  0  0
 61 13  1  1  0  0  0
 63 13  1  1  0  0  0
 14 63  1  0  0  0  0
 14 67  1  0  0  0  0
 68 15  1  1  0  0  0
 70 15  1  1  0  0  0
 66 16  1  1  0  0  0
 16 75  1  0  0  0  0
 17 70  1  0  0  0  0
 17 74  1  0  0  0  0
 73 18  1  6  0  0  0
 76 18  1  6  0  0  0
 72 19  1  6  0  0  0
 19 82  1  0  0  0  0
 20 76  1  0  0  0  0
 20 81  1  0  0  0  0
 79 21  1  6  0  0  0
 21 84  1  0  0  0  0
 80 22  1  6  0  0  0
 22181  1  0  0  0  0
 23 24  1  0  0  0  0
 23 25  1  0  0  0  0
 23 31  1  0  0  0  0
 24 27  1  0  0  0  0
 24 28  1  0  0  0  0
 24 34  1  6  0  0  0
 25 26  1  0  0  0  0
 25 33  1  0  0  0  0
 26 29  1  0  0  0  0
 26 30  1  0  0  0  0
 26 85  1  1  0  0  0
 27 30  1  0  0  0  0
 27 86  1  0  0  0  0
 28 32  1  0  0  0  0
 28 39  1  0  0  0  0
 29 35  1  0  0  0  0
 29 36  1  0  0  0  0
 29 38  1  6  0  0  0
 30 87  1  0  0  0  0
 30 88  1  0  0  0  0
 31 32  1  0  0  0  0
 31 89  1  0  0  0  0
 31 90  1  0  0  0  0
 32 91  1  0  0  0  0
 32 92  1  0  0  0  0
 33 37  1  0  0  0  0
 33 93  1  0  0  0  0
 33 94  1  0  0  0  0
 34 95  1  0  0  0  0
 34 96  1  0  0  0  0
 34 97  1  0  0  0  0
 35 37  2  0  0  0  0
 35 40  1  0  0  0  0
 36 41  1  0  0  0  0
 36 98  1  0  0  0  0
 36 99  1  0  0  0  0
 37100  1  0  0  0  0
 38102  1  0  0  0  0
 38103  1  0  0  0  0
 38104  1  0  0  0  0
 39 43  1  0  0  0  0
 40 42  1  0  0  0  0
 40106  1  0  0  0  0
 40107  1  0  0  0  0
 41 42  1  0  0  0  0
 41108  1  0  0  0  0
 41109  1  0  0  0  0
 42110  1  0  0  0  0
 43112  1  0  0  0  0
 43113  1  0  0  0  0
 43114  1  0  0  0  0
 44 46  1  0  0  0  0
 45 47  1  0  0  0  0
 45115  1  0  0  0  0
 46 48  2  0  0  0  0
 46116  1  0  0  0  0
 47 49  1  0  0  0  0
 47117  1  0  0  0  0
 47118  1  0  0  0  0
 48 52  1  0  0  0  0
 48 53  1  0  0  0  0
 49 51  1  0  0  0  0
 49119  1  0  0  0  0
 50 51  1  0  0  0  0
 50 54  1  1  0  0  0
 50120  1  0  0  0  0
 51121  1  0  0  0  0
 52 55  1  0  0  0  0
 52 56  1  0  0  0  0
 52122  1  0  0  0  0
 53123  1  0  0  0  0
 53124  1  0  0  0  0
 53125  1  0  0  0  0
 54126  1  0  0  0  0
 54127  1  0  0  0  0
 54128  1  0  0  0  0
 55130  1  0  0  0  0
 55131  1  0  0  0  0
 55132  1  0  0  0  0
 56133  1  0  0  0  0
 56134  1  0  0  0  0
 56135  1  0  0  0  0
 57 58  1  0  0  0  0
 57136  1  0  0  0  0
 58 59  1  0  0  0  0
 58137  1  0  0  0  0
 58138  1  0  0  0  0
 59 61  1  0  0  0  0
 59139  1  0  0  0  0
 60 61  1  0  0  0  0
 60 62  1  6  0  0  0
 60140  1  0  0  0  0
 61141  1  0  0  0  0
 62142  1  0  0  0  0
 62143  1  0  0  0  0
 62144  1  0  0  0  0
 63 65  1  0  0  0  0
 63145  1  0  0  0  0
 64146  1  0  0  0  0
 64147  1  0  0  0  0
 64148  1  0  0  0  0
 65 66  1  0  0  0  0
 65149  1  0  0  0  0
 65150  1  0  0  0  0
 66 68  1  0  0  0  0
 66151  1  0  0  0  0
 67 68  1  0  0  0  0
 67 69  1  6  0  0  0
 67153  1  0  0  0  0
 68152  1  0  0  0  0
 69154  1  0  0  0  0
 69155  1  0  0  0  0
 69156  1  0  0  0  0
 70 71  1  0  0  0  0
 70157  1  0  0  0  0
 71 72  1  0  0  0  0
 71158  1  0  0  0  0
 71159  1  0  0  0  0
 72 73  1  0  0  0  0
 72160  1  0  0  0  0
 73 74  1  0  0  0  0
 73161  1  0  0  0  0
 74 77  1  1  0  0  0
 74162  1  0  0  0  0
 75163  1  0  0  0  0
 75164  1  0  0  0  0
 75165  1  0  0  0  0
 76 78  1  0  0  0  0
 76166  1  0  0  0  0
 77167  1  0  0  0  0
 77168  1  0  0  0  0
 77169  1  0  0  0  0
 78 79  1  0  0  0  0
 78170  1  0  0  0  0
 78171  1  0  0  0  0
 79 80  1  0  0  0  0
 79172  1  0  0  0  0
 80 81  1  0  0  0  0
 80173  1  0  0  0  0
 81 83  1  1  0  0  0
 81174  1  0  0  0  0
 82175  1  0  0  0  0
 82176  1  0  0  0  0
 82177  1  0  0  0  0
 83178  1  0  0  0  0
 83179  1  0  0  0  0
 83180  1  0  0  0  0
 84182  1  0  0  0  0
 84183  1  0  0  0  0
 84184  1  0  0  0  0
M  END
> <PUBCHEM_COMPOUND_CID>
102165353

> <PUBCHEM_COMPOUND_CANONICALIZED>
1

> <PUBCHEM_CACTVS_COMPLEXITY>
2340

> <PUBCHEM_CACTVS_HBOND_ACCEPTOR>
22

> <PUBCHEM_CACTVS_HBOND_DONOR>
5

> <PUBCHEM_CACTVS_ROTATABLE_BOND>
19

> <PUBCHEM_CACTVS_SUBSKEYS>
AAADcfB8PgAAAAAAAAAAAAAAAAAAAYAAAAA0aJEiQAAAAGCAAAAAGgAACAAAD1SwgAMCCAAABgCIAqDSCAIAAAAgAAAACAFAAEgRFBIAIQAiUAAFwAAPIQPK7PzPgAAAAAAAAADCAAYQADCAAYQADAAAAA==

> <PUBCHEM_IUPAC_OPENEYE_NAME>
[(3S,8S,9R,10R,12R,13S,14R,17S)-17-acetyl-8,14,17-trihydroxy-3-[(2R,4S,5S,6R)-4-hydroxy-5-[(2S,4R,5R,6R)-5-[(2S,4R,5S,6S)-5-[(2S,4S,5R,6R)-5-[(2S,4R,5S,6S)-5-hydroxy-4-methoxy-6-methyl-tetrahydropyran-2-yl]oxy-4-methoxy-6-methyl-tetrahydropyran-2-yl]oxy-4-methoxy-6-methyl-tetrahydropyran-2-yl]oxy-4-methoxy-6-methyl-tetrahydropyran-2-yl]oxy-6-methyl-tetrahydropyran-2-yl]oxy-10,13-dimethyl-1,2,3,4,7,9,11,12,15,16-decahydrocyclopenta[a]phenanthren-12-yl] (E)-3,4-dimethylpent-2-enoate

> <PUBCHEM_IUPAC_CAS_NAME>
(E)-3,4-dimethyl-2-pentenoic acid [(3S,8S,9R,10R,12R,13S,14R,17S)-17-acetyl-8,14,17-trihydroxy-3-[[(2R,4S,5S,6R)-4-hydroxy-5-[[(2S,4R,5R,6R)-5-[[(2S,4R,5S,6S)-5-[[(2S,4S,5R,6R)-5-[[(2S,4R,5S,6S)-5-hydroxy-4-methoxy-6-methyl-2-oxanyl]oxy]-4-methoxy-6-methyl-2-oxanyl]oxy]-4-methoxy-6-methyl-2-oxanyl]oxy]-4-methoxy-6-methyl-2-oxanyl]oxy]-6-methyl-2-oxanyl]oxy]-10,13-dimethyl-1,2,3,4,7,9,11,12,15,16-decahydrocyclopenta[a]phenanthren-12-yl] ester

> <PUBCHEM_IUPAC_NAME_MARKUP>
[(3<I>S</I>,8<I>S</I>,9<I>R</I>,10<I>R</I>,12<I>R</I>,13<I>S</I>,14<I>R</I>,17<I>S</I>)-17-acetyl-8,14,17-trihydroxy-3-[(2<I>R</I>,4<I>S</I>,5<I>S</I>,6<I>R</I>)-4-hydroxy-5-[(2<I>S</I>,4<I>R</I>,5<I>R</I>,6<I>R</I>)-5-[(2<I>S</I>,4<I>R</I>,5<I>S</I>,6<I>S</I>)-5-[(2<I>S</I>,4<I>S</I>,5<I>R</I>,6<I>R</I>)-5-[(2<I>S</I>,4<I>R</I>,5<I>S</I>,6<I>S</I>)-5-hydroxy-4-methoxy-6-methyloxan-2-yl]oxy-4-methoxy-6-methyloxan-2-yl]oxy-4-methoxy-6-methyloxan-2-yl]oxy-4-methoxy-6-methyloxan-2-yl]oxy-6-methyloxan-2-yl]oxy-10,13-dimethyl-1,2,3,4,7,9,11,12,15,16-decahydrocyclopenta[a]phenanthren-12-yl] (<I>E</I>)-3,4-dimethylpent-2-enoate

> <PUBCHEM_IUPAC_NAME>
[(3S,8S,9R,10R,12R,13S,14R,17S)-17-acetyl-8,14,17-trihydroxy-3-[(2R,4S,5S,6R)-4-hydroxy-5-[(2S,4R,5R,6R)-5-[(2S,4R,5S,6S)-5-[(2S,4S,5R,6R)-5-[(2S,4R,5S,6S)-5-hydroxy-4-methoxy-6-methyloxan-2-yl]oxy-4-methoxy-6-methyloxan-2-yl]oxy-4-methoxy-6-methyloxan-2-yl]oxy-4-methoxy-6-methyloxan-2-yl]oxy-6-methyloxan-2-yl]oxy-10,13-dimethyl-1,2,3,4,7,9,11,12,15,16-decahydrocyclopenta[a]phenanthren-12-yl] (E)-3,4-dimethylpent-2-enoate

> <PUBCHEM_IUPAC_SYSTEMATIC_NAME>
[(3S,8S,9R,10R,12R,13S,14R,17S)-17-ethanoyl-3-[(2R,4S,5S,6R)-5-[(2S,4R,5R,6R)-4-methoxy-5-[(2S,4R,5S,6S)-4-methoxy-5-[(2S,4S,5R,6R)-4-methoxy-5-[(2S,4R,5S,6S)-4-methoxy-6-methyl-5-oxidanyl-oxan-2-yl]oxy-6-methyl-oxan-2-yl]oxy-6-methyl-oxan-2-yl]oxy-6-methyl-oxan-2-yl]oxy-6-methyl-4-oxidanyl-oxan-2-yl]oxy-10,13-dimethyl-8,14,17-tris(oxidanyl)-1,2,3,4,7,9,11,12,15,16-decahydrocyclopenta[a]phenanthren-12-yl] (E)-3,4-dimethylpent-2-enoate

> <PUBCHEM_IUPAC_TRADITIONAL_NAME>
(E)-3,4-dimethylpent-2-enoic acid [(3S,8S,9R,10R,12R,13S,14R,17S)-17-acetyl-8,14,17-trihydroxy-3-[(2R,4S,5S,6R)-4-hydroxy-5-[(2S,4R,5R,6R)-5-[(2S,4R,5S,6S)-5-[(2S,4S,5R,6R)-5-[(2S,4R,5S,6S)-5-hydroxy-4-methoxy-6-methyl-tetrahydropyran-2-yl]oxy-4-methoxy-6-methyl-tetrahydropyran-2-yl]oxy-4-methoxy-6-methyl-tetrahydropyran-2-yl]oxy-4-methoxy-6-methyl-tetrahydropyran-2-yl]oxy-6-methyl-tetrahydropyran-2-yl]oxy-10,13-dimethyl-1,2,3,4,7,9,11,12,15,16-decahydrocyclopenta[a]phenanthren-12-yl] ester

> <PUBCHEM_IUPAC_INCHI>
InChI=1S/C62H100O22/c1-30(2)31(3)22-47(65)80-46-29-45-58(10)18-17-39(23-38(58)16-19-61(45,68)62(69)21-20-60(67,37(9)63)59(46,62)11)79-48-24-40(64)54(33(5)75-48)81-50-26-42(71-13)56(34(6)76-50)83-52-28-44(73-15)57(36(8)78-52)84-51-27-43(72-14)55(35(7)77-51)82-49-25-41(70-12)53(66)32(4)74-49/h16,22,30,32-36,39-46,48-57,64,66-69H,17-21,23-29H2,1-15H3/b31-22+/t32-,33+,34+,35+,36-,39-,40-,41+,42+,43-,44+,45+,46+,48-,49-,50-,51-,52-,53-,54+,55+,56+,57-,58-,59+,60+,61-,62+/m0/s1

> <PUBCHEM_IUPAC_INCHIKEY>
IIBLKIXLYUOCQN-KRZKCPRISA-N

> <PUBCHEM_XLOGP3_AA>
4

> <PUBCHEM_EXACT_MASS>
1196.670625

> <PUBCHEM_MOLECULAR_FORMULA>
C62H100O22

> <PUBCHEM_MOLECULAR_WEIGHT>
1197.4

> <PUBCHEM_OPENEYE_CAN_SMILES>
CC1C(C(CC(O1)OC2C(OC(CC2OC)OC3C(OC(CC3OC)OC4C(OC(CC4OC)OC5C(OC(CC5O)OC6CCC7(C8CC(C9(C(CCC9(C8(CC=C7C6)O)O)(C(=O)C)O)C)OC(=O)C=C(C)C(C)C)C)C)C)C)C)OC)O

> <PUBCHEM_OPENEYE_ISO_SMILES>
C[C@H]1[C@@H]([C@@H](C[C@@H](O1)O[C@@H]2[C@H](O[C@H](C[C@@H]2OC)O[C@H]3[C@@H](O[C@H](C[C@H]3OC)O[C@@H]4[C@H](O[C@H](C[C@H]4OC)O[C@@H]5[C@H](O[C@H](C[C@@H]5O)O[C@H]6CC[C@@]7([C@H]8C[C@H]([C@@]9([C@@](CC[C@@]9([C@@]8(CC=C7C6)O)O)(C(=O)C)O)C)OC(=O)/C=C(\C)/C(C)C)C)C)C)C)C)OC)O

> <PUBCHEM_CACTVS_TPSA>
274

> <PUBCHEM_MONOISOTOPIC_WEIGHT>
1196.670625

> <PUBCHEM_TOTAL_CHARGE>
0

> <PUBCHEM_HEAVY_ATOM_COUNT>
84

> <PUBCHEM_ATOM_DEF_STEREO_COUNT>
28

> <PUBCHEM_ATOM_UDEF_STEREO_COUNT>
0

> <PUBCHEM_BOND_DEF_STEREO_COUNT>
1

> <PUBCHEM_BOND_UDEF_STEREO_COUNT>
0

> <PUBCHEM_ISOTOPIC_ATOM_COUNT>
0

> <PUBCHEM_COMPONENT_COUNT>
1

> <PUBCHEM_CACTVS_TAUTO_COUNT>
-1

> <PUBCHEM_COORDINATE_TYPE>
1
5
255

> <PUBCHEM_BONDANNOTATIONS>
23  1  6
51  10  6
57  10  6
59  12  6
61  13  5
63  13  5
68  15  5
70  15  5
66  16  5
73  18  6
76  18  6
72  19  6
25  2  6
79  21  6
80  22  6
24  34  6
26  85  5
29  38  6
27  3  6
28  4  6
42  5  6
45  5  5
50  54  5
60  62  6
67  69  6
74  77  5
81  83  5
49  9  6

$$$$
