16217350
  -OEChem-09022004493D

 42 44  0     1  0  0  0  0  0999 V2000
   -3.5253   -1.1447   -0.3876 O   0  0  0  0  0  0  0  0  0  0  0  0
    0.0711    0.4013    0.9460 C   0  0  2  0  0  0  0  0  0  0  0  0
    0.8066    1.1380   -0.0957 C   0  0  2  0  0  0  0  0  0  0  0  0
   -0.5970   -0.7308   -0.0392 C   0  0  2  0  0  0  0  0  0  0  0  0
   -0.6300    1.4646   -0.7678 C   0  0  1  0  0  0  0  0  0  0  0  0
   -1.5715    0.1791   -0.7582 C   0  0  2  0  0  0  0  0  0  0  0  0
    2.0947    0.2217   -0.2968 C   0  0  0  0  0  0  0  0  0  0  0  0
   -0.8561    1.4965    1.5496 C   0  0  0  0  0  0  0  0  0  0  0  0
   -1.2051    2.3627    0.3385 C   0  0  0  0  0  0  0  0  0  0  0  0
   -0.5273   -1.9055    0.8875 C   0  0  0  0  0  0  0  0  0  0  0  0
    2.1540   -1.3330    0.2725 C   0  0  0  0  0  0  0  0  0  0  0  0
   -0.0945   -1.4417   -1.3842 C   0  0  0  0  0  0  0  0  0  0  0  0
    1.0325   -2.1244    1.1367 C   0  0  0  0  0  0  0  0  0  0  0  0
   -2.9990    0.1596   -0.2225 C   0  0  0  0  0  0  0  0  0  0  0  0
    2.6376    0.3176   -1.7383 C   0  0  0  0  0  0  0  0  0  0  0  0
    3.2097    0.9392    0.5595 C   0  0  0  0  0  0  0  0  0  0  0  0
    0.6829    0.0559    1.7806 H   0  0  0  0  0  0  0  0  0  0  0  0
    1.1902    2.1158    0.2297 H   0  0  0  0  0  0  0  0  0  0  0  0
   -0.5600    1.9574   -1.7403 H   0  0  0  0  0  0  0  0  0  0  0  0
   -1.7227   -0.0495   -1.8240 H   0  0  0  0  0  0  0  0  0  0  0  0
   -0.3019    2.1034    2.2769 H   0  0  0  0  0  0  0  0  0  0  0  0
   -1.7094    1.0773    2.0843 H   0  0  0  0  0  0  0  0  0  0  0  0
   -2.2724    2.5780    0.2489 H   0  0  0  0  0  0  0  0  0  0  0  0
   -0.6827    3.3259    0.3812 H   0  0  0  0  0  0  0  0  0  0  0  0
   -0.9740   -2.8160    0.4702 H   0  0  0  0  0  0  0  0  0  0  0  0
   -1.0368   -1.7239    1.8414 H   0  0  0  0  0  0  0  0  0  0  0  0
    3.0532   -1.4163    0.9013 H   0  0  0  0  0  0  0  0  0  0  0  0
    2.4308   -1.9741   -0.5754 H   0  0  0  0  0  0  0  0  0  0  0  0
    0.2080   -0.7434   -2.1663 H   0  0  0  0  0  0  0  0  0  0  0  0
    0.6551   -2.2254   -1.3063 H   0  0  0  0  0  0  0  0  0  0  0  0
   -0.9441   -2.0036   -1.8095 H   0  0  0  0  0  0  0  0  0  0  0  0
    1.2326   -1.9240    2.1986 H   0  0  0  0  0  0  0  0  0  0  0  0
    1.2376   -3.1977    1.0239 H   0  0  0  0  0  0  0  0  0  0  0  0
   -3.6234    0.8567   -0.7916 H   0  0  0  0  0  0  0  0  0  0  0  0
   -3.0971    0.4018    0.8330 H   0  0  0  0  0  0  0  0  0  0  0  0
    2.6343    1.3564   -2.0883 H   0  0  0  0  0  0  0  0  0  0  0  0
    3.6719   -0.0434   -1.7926 H   0  0  0  0  0  0  0  0  0  0  0  0
    2.0770   -0.2725   -2.4608 H   0  0  0  0  0  0  0  0  0  0  0  0
    3.3634    1.9754    0.2346 H   0  0  0  0  0  0  0  0  0  0  0  0
    2.9420    0.9539    1.6220 H   0  0  0  0  0  0  0  0  0  0  0  0
    4.1782    0.4334    0.4650 H   0  0  0  0  0  0  0  0  0  0  0  0
   -4.4447   -1.1267   -0.0715 H   0  0  0  0  0  0  0  0  0  0  0  0
  1 14  1  0  0  0  0
  1 42  1  0  0  0  0
  2  3  1  0  0  0  0
  2  4  1  0  0  0  0
  2  8  1  0  0  0  0
  2 17  1  0  0  0  0
  3  5  1  0  0  0  0
  3  7  1  0  0  0  0
  3 18  1  0  0  0  0
  4  6  1  0  0  0  0
  4 10  1  0  0  0  0
  4 12  1  0  0  0  0
  5  6  1  0  0  0  0
  5  9  1  0  0  0  0
  5 19  1  0  0  0  0
  6 14  1  0  0  0  0
  6 20  1  0  0  0  0
  7 11  1  0  0  0  0
  7 15  1  0  0  0  0
  7 16  1  0  0  0  0
  8  9  1  0  0  0  0
  8 21  1  0  0  0  0
  8 22  1  0  0  0  0
  9 23  1  0  0  0  0
  9 24  1  0  0  0  0
 10 13  1  0  0  0  0
 10 25  1  0  0  0  0
 10 26  1  0  0  0  0
 11 13  1  0  0  0  0
 11 27  1  0  0  0  0
 11 28  1  0  0  0  0
 12 29  1  0  0  0  0
 12 30  1  0  0  0  0
 12 31  1  0  0  0  0
 13 32  1  0  0  0  0
 13 33  1  0  0  0  0
 14 34  1  0  0  0  0
 14 35  1  0  0  0  0
 15 36  1  0  0  0  0
 15 37  1  0  0  0  0
 15 38  1  0  0  0  0
 16 39  1  0  0  0  0
 16 40  1  0  0  0  0
 16 41  1  0  0  0  0
M  END
> <PUBCHEM_COMPOUND_CID>
16217350

> <PUBCHEM_CONFORMER_RMSD>
0.6

> <PUBCHEM_CONFORMER_DIVERSEORDER>
1

> <PUBCHEM_MMFF94_PARTIAL_CHARGES>
3
1 -0.68
14 0.28
42 0.4

> <PUBCHEM_EFFECTIVE_ROTOR_COUNT>
2.4

> <PUBCHEM_PHARMACOPHORE_FEATURES>
5
1 1 acceptor
1 1 donor
3 7 15 16 hydrophobe
7 2 3 4 5 6 8 9 rings
7 2 3 4 7 10 11 13 rings

> <PUBCHEM_HEAVY_ATOM_COUNT>
16

> <PUBCHEM_ATOM_DEF_STEREO_COUNT>
5

> <PUBCHEM_ATOM_UDEF_STEREO_COUNT>
0

> <PUBCHEM_BOND_DEF_STEREO_COUNT>
0

> <PUBCHEM_BOND_UDEF_STEREO_COUNT>
0

> <PUBCHEM_ISOTOPIC_ATOM_COUNT>
0

> <PUBCHEM_COMPONENT_COUNT>
1

> <PUBCHEM_CACTVS_TAUTO_COUNT>
1

> <PUBCHEM_CONFORMER_ID>
00F7750600000001

> <PUBCHEM_MMFF94_ENERGY>
217.914

> <PUBCHEM_FEATURE_SELFOVERLAP>
25.552

> <PUBCHEM_SHAPE_FINGERPRINT>
10353120 184 18342178881768347941
10863032 1 18189041015217263293
10948715 1 18268702986413207224
12423570 1 8537698443874001928
12491281 212 17416992571986885697
13024252 1 13479126925914464420
13538477 17 18126566704492700737
14115302 16 17968940915366719718
144361 1 18270691874019564454
14617773 55 18200030629794800593
15001771 113 18122899833124240987
15775835 57 18194409896447399148
15852999 172 16950288394535632146
16945 1 18334583485360684209
20511035 2 17621843553925443291
20645476 183 17532383143568069774
21501502 16 18192429663015254265
22344851 341 18267299820470847795
2334 1 17688031233287199008
23402539 116 18341316886264138636
23419403 2 16900409277385980100
23552423 10 18044092358614831563
23559900 14 18337955722922379524
2748010 2 18191861232535811860
353137 74 18410568474719128841
430814 3 17899732022891643820
5084963 1 18263363590508052670
528886 8 18114732853942058194
54276843 12 18341897428240151901
68250623 7 18119526540192964201
81228 2 18270135602803936504

> <PUBCHEM_SHAPE_MULTIPOLES>
323.4
3.89
2.26
1.39
0.1
0.22
-0.12
-0.06
-0.69
0.27
0.56
-0.34
0.04
-0.42

> <PUBCHEM_SHAPE_SELFOVERLAP>
683.186

> <PUBCHEM_SHAPE_VOLUME>
187.6

> <PUBCHEM_COORDINATE_TYPE>
2
5
10

$$$$
