123622
  -OEChem-09022004533D

 45 46  0     1  0  0  0  0  0999 V2000
    0.1222    0.4897   -0.4833 O   0  0  0  0  0  0  0  0  0  0  0  0
   -1.4886    1.6386   -1.6813 O   0  0  0  0  0  0  0  0  0  0  0  0
    2.3872    2.3045    1.5467 O   0  0  0  0  0  0  0  0  0  0  0  0
    3.1082   -0.5277   -2.0119 O   0  0  0  0  0  0  0  0  0  0  0  0
    2.4021    0.9958   -0.3895 N   0  0  0  0  0  0  0  0  0  0  0  0
    4.3706   -0.0097   -0.1024 N   0  0  0  0  0  0  0  0  0  0  0  0
   -2.7311    0.0259    0.9797 C   0  0  0  0  0  0  0  0  0  0  0  0
   -3.5514    0.1898   -0.2659 C   0  0  1  0  0  0  0  0  0  0  0  0
   -2.1172   -0.2227   -0.3606 C   0  0  1  0  0  0  0  0  0  0  0  0
   -3.0536   -1.1295    1.8667 C   0  0  0  0  0  0  0  0  0  0  0  0
   -2.2677    1.2317    1.7276 C   0  0  0  0  0  0  0  0  0  0  0  0
   -4.5741   -0.7872   -0.6084 C   0  0  0  0  0  0  0  0  0  0  0  0
   -1.1407    0.7450   -0.9226 C   0  0  0  0  0  0  0  0  0  0  0  0
   -5.8573   -0.8143   -0.2002 C   0  0  0  0  0  0  0  0  0  0  0  0
   -6.7934   -1.9019   -0.6486 C   0  0  0  0  0  0  0  0  0  0  0  0
   -6.4641    0.2094    0.7171 C   0  0  0  0  0  0  0  0  0  0  0  0
    1.1314    1.3742   -0.9755 C   0  0  0  0  0  0  0  0  0  0  0  0
    2.9024    1.4872    0.7955 C   0  0  0  0  0  0  0  0  0  0  0  0
    3.2706    0.0815   -0.9619 C   0  0  0  0  0  0  0  0  0  0  0  0
    4.2469    0.8432    1.0553 C   0  0  0  0  0  0  0  0  0  0  0  0
    5.5300   -0.8522   -0.3008 C   0  0  0  0  0  0  0  0  0  0  0  0
    5.3540   -2.1518    0.3468 C   0  0  0  0  0  0  0  0  0  0  0  0
    5.2136   -3.2197    0.8773 C   0  0  0  0  0  0  0  0  0  0  0  0
   -3.8057    1.2033   -0.5623 H   0  0  0  0  0  0  0  0  0  0  0  0
   -1.8981   -1.2559   -0.6163 H   0  0  0  0  0  0  0  0  0  0  0  0
   -2.2345   -1.3049    2.5736 H   0  0  0  0  0  0  0  0  0  0  0  0
   -3.9585   -0.9309    2.4512 H   0  0  0  0  0  0  0  0  0  0  0  0
   -3.1980   -2.0681    1.3208 H   0  0  0  0  0  0  0  0  0  0  0  0
   -2.2184    2.1304    1.1033 H   0  0  0  0  0  0  0  0  0  0  0  0
   -2.9557    1.4581    2.5499 H   0  0  0  0  0  0  0  0  0  0  0  0
   -1.2747    1.0625    2.1582 H   0  0  0  0  0  0  0  0  0  0  0  0
   -4.2538   -1.5782   -1.2853 H   0  0  0  0  0  0  0  0  0  0  0  0
   -7.1754   -2.4532    0.2168 H   0  0  0  0  0  0  0  0  0  0  0  0
   -7.6426   -1.4718   -1.1897 H   0  0  0  0  0  0  0  0  0  0  0  0
   -6.3066   -2.6232   -1.3133 H   0  0  0  0  0  0  0  0  0  0  0  0
   -7.3041    0.7083    0.2226 H   0  0  0  0  0  0  0  0  0  0  0  0
   -6.8350   -0.2732    1.6273 H   0  0  0  0  0  0  0  0  0  0  0  0
   -5.7540    0.9837    1.0216 H   0  0  0  0  0  0  0  0  0  0  0  0
    0.8952    2.4019   -0.6790 H   0  0  0  0  0  0  0  0  0  0  0  0
    1.1954    1.2870   -2.0653 H   0  0  0  0  0  0  0  0  0  0  0  0
    5.0436    1.5901    1.0602 H   0  0  0  0  0  0  0  0  0  0  0  0
    4.2236    0.2442    1.9679 H   0  0  0  0  0  0  0  0  0  0  0  0
    5.6637   -1.0011   -1.3780 H   0  0  0  0  0  0  0  0  0  0  0  0
    6.4141   -0.3299    0.0788 H   0  0  0  0  0  0  0  0  0  0  0  0
    5.0886   -4.1668    1.3479 H   0  0  0  0  0  0  0  0  0  0  0  0
  1 13  1  0  0  0  0
  1 17  1  0  0  0  0
  2 13  2  0  0  0  0
  3 18  2  0  0  0  0
  4 19  2  0  0  0  0
  5 17  1  0  0  0  0
  5 18  1  0  0  0  0
  5 19  1  0  0  0  0
  6 19  1  0  0  0  0
  6 20  1  0  0  0  0
  6 21  1  0  0  0  0
  7  8  1  0  0  0  0
  7  9  1  0  0  0  0
  7 10  1  0  0  0  0
  7 11  1  0  0  0  0
  8  9  1  0  0  0  0
  8 12  1  0  0  0  0
  8 24  1  0  0  0  0
  9 13  1  0  0  0  0
  9 25  1  0  0  0  0
 10 26  1  0  0  0  0
 10 27  1  0  0  0  0
 10 28  1  0  0  0  0
 11 29  1  0  0  0  0
 11 30  1  0  0  0  0
 11 31  1  0  0  0  0
 12 14  2  0  0  0  0
 12 32  1  0  0  0  0
 14 15  1  0  0  0  0
 14 16  1  0  0  0  0
 15 33  1  0  0  0  0
 15 34  1  0  0  0  0
 15 35  1  0  0  0  0
 16 36  1  0  0  0  0
 16 37  1  0  0  0  0
 16 38  1  0  0  0  0
 17 39  1  0  0  0  0
 17 40  1  0  0  0  0
 18 20  1  0  0  0  0
 20 41  1  0  0  0  0
 20 42  1  0  0  0  0
 21 22  1  0  0  0  0
 21 43  1  0  0  0  0
 21 44  1  0  0  0  0
 22 23  3  0  0  0  0
 23 45  1  0  0  0  0
M  END
> <PUBCHEM_COMPOUND_CID>
123622

> <PUBCHEM_CONFORMER_RMSD>
1.2

> <PUBCHEM_CONFORMER_DIVERSEORDER>
1
174
127
59
65
6
139
175
105
86
64
17
171
77
60
12
119
107
80
151
57
73
55
158
79
13
76
24
4
83
147
160
45
133
102
37
94
104
44
52
49
138
7
143
181
81
152
21
134
32
92
25
3
91
72
42
89
48
164
153
58
132
125
47
124
50
141
41
54
117
69
29
68
100
74
26
182
61
113
130
93
180
115
154
56
165
20
128
116
67
112
185
11
163
38
84
144
142
161
2
146
88
173
70
122
90
18
98
170
78
120
27
96
157
97
62
35
87
129
23
63
137
99
39
183
10
46
156
145
186
172
75
66
126
123
85
103
5
118
30
176
101
135
159
19
36
43
106
108
28
95
148
33
9
136
110
155
131
31
179
82
150
34
14
167
53
114
178
140
16
22
149
40
111
169
51
121
109
168
15
162
166
8
184
71
177

> <PUBCHEM_MMFF94_PARTIAL_CHARGES>
27
1 -0.43
10 0.09
11 0.09
12 -0.19
13 0.72
14 -0.28
15 0.14
16 0.14
17 0.58
18 0.57
19 0.69
2 -0.57
20 0.36
21 0.5
22 -0.2
23 -0.18
24 0.1
25 0.1
3 -0.57
32 0.15
4 -0.57
45 0.18
5 -0.42
6 -0.66
7 -0.19
8 -0.06
9 -0.1

> <PUBCHEM_EFFECTIVE_ROTOR_COUNT>
7.2

> <PUBCHEM_PHARMACOPHORE_FEATURES>
7
1 2 acceptor
1 23 hydrophobe
1 3 acceptor
1 4 acceptor
3 14 15 16 hydrophobe
3 7 10 11 hydrophobe
5 5 6 18 19 20 rings

> <PUBCHEM_HEAVY_ATOM_COUNT>
23

> <PUBCHEM_ATOM_DEF_STEREO_COUNT>
0

> <PUBCHEM_ATOM_UDEF_STEREO_COUNT>
2

> <PUBCHEM_BOND_DEF_STEREO_COUNT>
0

> <PUBCHEM_BOND_UDEF_STEREO_COUNT>
0

> <PUBCHEM_ISOTOPIC_ATOM_COUNT>
0

> <PUBCHEM_COMPONENT_COUNT>
1

> <PUBCHEM_CACTVS_TAUTO_COUNT>
1

> <PUBCHEM_CONFORMER_ID>
0001E2E600000001

> <PUBCHEM_MMFF94_ENERGY>
34.5547

> <PUBCHEM_FEATURE_SELFOVERLAP>
35.522

> <PUBCHEM_SHAPE_FINGERPRINT>
11796584 16 16515406308469671227
12166972 35 18411420630770118441
12236239 1 18343585166136181879
12596602 18 17775282747161560690
12616971 3 17132108074338522381
12633257 1 17846782918626111014
12760667 363 18186805742553777379
13533116 47 18413106190584680978
13782708 43 18410008823527587247
13914758 101 18271807874765495641
13955234 65 18338233898958304192
14341114 328 16558753463625975429
15183329 4 15285349622763683863
15188451 53 18202280312384976079
15475509 35 18338506461962012298
15475509 8 17385722448883048045
15510800 12 17896039863141647490
16752209 62 17022891346526020637
16760501 71 11743543419086761915
17349148 13 18041003972972482293
17857418 61 18342177760676641863
17870717 6 16515407361237805339
18222031 100 18040433334500165061
19489759 90 18413392047293385033
21344244 78 16917062261583401296
21792934 111 16200439048948657779
2215653 11 17603583041158453035
22849339 104 15430331242939490843
23559900 14 17313671567335736581
23569943 247 18188767228828995715
2916195 48 11600006539935780043
29717793 49 17168145632948020662
3472631 163 10952040165595409244
34797466 226 16081379565536393366
5104073 3 17775847904100347001
59755656 215 17385436605566076411

> <PUBCHEM_SHAPE_MULTIPOLES>
439.89
16.47
2.26
1.59
7.39
1.24
0.2
11.14
0.7
-3.07
0.58
0.1
-0.34
-0.44

> <PUBCHEM_SHAPE_SELFOVERLAP>
903.649

> <PUBCHEM_SHAPE_VOLUME>
255.6

> <PUBCHEM_COORDINATE_TYPE>
2
5
10

$$$$
