89989
  -OEChem-09022004293D

 17 17  0     0  0  0  0  0  0999 V2000
    0.1146    0.7165    0.3093 O   0  0  0  0  0  0  0  0  0  0  0  0
   -3.3812    0.3364   -0.2106 O   0  0  0  0  0  0  0  0  0  0  0  0
    2.4666    0.2769    0.5293 C   0  0  0  0  0  0  0  0  0  0  0  0
    1.1061   -0.2114    0.2629 C   0  0  0  0  0  0  0  0  0  0  0  0
    0.5928   -1.4525   -0.0340 C   0  0  0  0  0  0  0  0  0  0  0  0
    3.1996    0.7323   -0.7411 C   0  0  0  0  0  0  0  0  0  0  0  0
   -1.0445    0.0607    0.0388 C   0  0  0  0  0  0  0  0  0  0  0  0
   -0.8039   -1.2758   -0.1794 C   0  0  0  0  0  0  0  0  0  0  0  0
   -2.2499    0.8170    0.0249 C   0  0  0  0  0  0  0  0  0  0  0  0
    2.4318    1.1131    1.2377 H   0  0  0  0  0  0  0  0  0  0  0  0
    3.0537   -0.5144    1.0104 H   0  0  0  0  0  0  0  0  0  0  0  0
    1.1530   -2.3712   -0.1338 H   0  0  0  0  0  0  0  0  0  0  0  0
    3.2921   -0.0916   -1.4566 H   0  0  0  0  0  0  0  0  0  0  0  0
    4.2047    1.0858   -0.4912 H   0  0  0  0  0  0  0  0  0  0  0  0
    2.6592    1.5483   -1.2327 H   0  0  0  0  0  0  0  0  0  0  0  0
   -1.5390   -2.0325   -0.4146 H   0  0  0  0  0  0  0  0  0  0  0  0
   -2.1571    1.8955    0.2377 H   0  0  0  0  0  0  0  0  0  0  0  0
  1  4  1  0  0  0  0
  1  7  1  0  0  0  0
  2  9  2  0  0  0  0
  3  4  1  0  0  0  0
  3  6  1  0  0  0  0
  3 10  1  0  0  0  0
  3 11  1  0  0  0  0
  4  5  2  0  0  0  0
  5  8  1  0  0  0  0
  5 12  1  0  0  0  0
  6 13  1  0  0  0  0
  6 14  1  0  0  0  0
  6 15  1  0  0  0  0
  7  8  2  0  0  0  0
  7  9  1  0  0  0  0
  8 16  1  0  0  0  0
  9 17  1  0  0  0  0
M  END
> <PUBCHEM_COMPOUND_CID>
89989

> <PUBCHEM_CONFORMER_RMSD>
0.4

> <PUBCHEM_CONFORMER_DIVERSEORDER>
2
8
9
5
3
11
10
12
1
4
6
7

> <PUBCHEM_MMFF94_PARTIAL_CHARGES>
11
1 -0.28
12 0.15
16 0.15
17 0.06
2 -0.57
3 0.18
4 -0.04
5 -0.15
7 0.05
8 -0.15
9 0.59

> <PUBCHEM_EFFECTIVE_ROTOR_COUNT>
2

> <PUBCHEM_PHARMACOPHORE_FEATURES>
4
1 1 acceptor
1 2 acceptor
1 6 hydrophobe
5 1 4 5 7 8 rings

> <PUBCHEM_HEAVY_ATOM_COUNT>
9

> <PUBCHEM_ATOM_DEF_STEREO_COUNT>
0

> <PUBCHEM_ATOM_UDEF_STEREO_COUNT>
0

> <PUBCHEM_BOND_DEF_STEREO_COUNT>
0

> <PUBCHEM_BOND_UDEF_STEREO_COUNT>
0

> <PUBCHEM_ISOTOPIC_ATOM_COUNT>
0

> <PUBCHEM_COMPONENT_COUNT>
1

> <PUBCHEM_CACTVS_TAUTO_COUNT>
1

> <PUBCHEM_CONFORMER_ID>
00015F8500000002

> <PUBCHEM_MMFF94_ENERGY>
0.8456

> <PUBCHEM_FEATURE_SELFOVERLAP>
20.297

> <PUBCHEM_SHAPE_FINGERPRINT>
14325111 11 18410854347816060689
14390081 3 18272083894294937785
20653085 51 18189068632289649028
21040471 1 18341324543937645674
21293036 1 18201440302259198581
23235685 24 18411415111552097964
23402655 69 18198606758728366837
23552423 10 18124317095154514759
29004967 10 18041002782738786681
369184 2 15502646139777790776

> <PUBCHEM_SHAPE_MULTIPOLES>
173.48
4.48
1.25
0.72
0.07
0.42
-0.02
-1.85
-0.65
0.06
-0.07
-0.3
-0.04
-0.16

> <PUBCHEM_SHAPE_SELFOVERLAP>
353.99

> <PUBCHEM_SHAPE_VOLUME>
102.3

> <PUBCHEM_COORDINATE_TYPE>
2
5
10

$$$$
