5365571
  -OEChem-09012009303D

 55 54  0     0  0  0  0  0  0999 V2000
   -5.7614   -0.6177    0.3431 O   0  0  0  0  0  0  0  0  0  0  0  0
   -4.8474    0.5143   -1.4501 O   0  0  0  0  0  0  0  0  0  0  0  0
    1.8205    3.7292    0.6581 C   0  0  0  0  0  0  0  0  0  0  0  0
    0.7222    2.8661    1.2876 C   0  0  0  0  0  0  0  0  0  0  0  0
    2.5635    3.1037   -0.5276 C   0  0  0  0  0  0  0  0  0  0  0  0
   -0.4037    2.5112    0.3145 C   0  0  0  0  0  0  0  0  0  0  0  0
    3.3459    1.8241   -0.2175 C   0  0  0  0  0  0  0  0  0  0  0  0
   -1.4751    1.6543    0.9940 C   0  0  0  0  0  0  0  0  0  0  0  0
    4.1111    1.2730   -1.4256 C   0  0  0  0  0  0  0  0  0  0  0  0
   -2.6155    1.3246    0.0263 C   0  0  0  0  0  0  0  0  0  0  0  0
    4.8834   -0.0116   -1.1043 C   0  0  0  0  0  0  0  0  0  0  0  0
   -3.6859    0.4447    0.6636 C   0  0  0  0  0  0  0  0  0  0  0  0
    3.9828   -1.1115   -0.6174 C   0  0  0  0  0  0  0  0  0  0  0  0
   -4.8148    0.1347   -0.2870 C   0  0  0  0  0  0  0  0  0  0  0  0
    4.1408   -1.7371    0.5597 C   0  0  0  0  0  0  0  0  0  0  0  0
    3.2770   -2.8206    1.1485 C   0  0  0  0  0  0  0  0  0  0  0  0
    2.0830   -3.2160    0.3284 C   0  0  0  0  0  0  0  0  0  0  0  0
   -6.8911   -0.9849   -0.4548 C   0  0  0  0  0  0  0  0  0  0  0  0
    0.8157   -3.0869    0.7491 C   0  0  0  0  0  0  0  0  0  0  0  0
   -0.3794   -3.4766   -0.0684 C   0  0  0  0  0  0  0  0  0  0  0  0
   -0.8713   -2.3169   -0.9203 C   0  0  0  0  0  0  0  0  0  0  0  0
    2.5504    3.9835    1.4366 H   0  0  0  0  0  0  0  0  0  0  0  0
    1.3782    4.6776    0.3284 H   0  0  0  0  0  0  0  0  0  0  0  0
    1.1608    1.9500    1.6995 H   0  0  0  0  0  0  0  0  0  0  0  0
    0.2998    3.4152    2.1384 H   0  0  0  0  0  0  0  0  0  0  0  0
    1.8631    2.9143   -1.3490 H   0  0  0  0  0  0  0  0  0  0  0  0
    3.2703    3.8531   -0.9072 H   0  0  0  0  0  0  0  0  0  0  0  0
   -0.8554    3.4313   -0.0752 H   0  0  0  0  0  0  0  0  0  0  0  0
   -0.0036    1.9562   -0.5410 H   0  0  0  0  0  0  0  0  0  0  0  0
    4.0517    2.0225    0.5983 H   0  0  0  0  0  0  0  0  0  0  0  0
    2.6413    1.0686    0.1459 H   0  0  0  0  0  0  0  0  0  0  0  0
   -1.8773    2.1860    1.8647 H   0  0  0  0  0  0  0  0  0  0  0  0
   -1.0240    0.7245    1.3611 H   0  0  0  0  0  0  0  0  0  0  0  0
    4.8184    2.0296   -1.7862 H   0  0  0  0  0  0  0  0  0  0  0  0
    3.4067    1.0821   -2.2452 H   0  0  0  0  0  0  0  0  0  0  0  0
   -2.2091    0.8222   -0.8606 H   0  0  0  0  0  0  0  0  0  0  0  0
   -3.0718    2.2577   -0.3281 H   0  0  0  0  0  0  0  0  0  0  0  0
    5.3925   -0.3559   -2.0121 H   0  0  0  0  0  0  0  0  0  0  0  0
    5.6652    0.2104   -0.3679 H   0  0  0  0  0  0  0  0  0  0  0  0
   -4.1070    0.9551    1.5372 H   0  0  0  0  0  0  0  0  0  0  0  0
   -3.2421   -0.5034    0.9867 H   0  0  0  0  0  0  0  0  0  0  0  0
    3.1673   -1.3855   -1.2806 H   0  0  0  0  0  0  0  0  0  0  0  0
    4.9754   -1.4356    1.1908 H   0  0  0  0  0  0  0  0  0  0  0  0
    3.8991   -3.7115    1.2966 H   0  0  0  0  0  0  0  0  0  0  0  0
    2.9611   -2.4930    2.1468 H   0  0  0  0  0  0  0  0  0  0  0  0
    2.2742   -3.6547   -0.6484 H   0  0  0  0  0  0  0  0  0  0  0  0
   -7.5668   -1.5800    0.1655 H   0  0  0  0  0  0  0  0  0  0  0  0
   -6.5712   -1.5914   -1.3074 H   0  0  0  0  0  0  0  0  0  0  0  0
   -7.4220   -0.0903   -0.7940 H   0  0  0  0  0  0  0  0  0  0  0  0
    0.6167   -2.6497    1.7244 H   0  0  0  0  0  0  0  0  0  0  0  0
   -1.1773   -3.8125    0.6036 H   0  0  0  0  0  0  0  0  0  0  0  0
   -0.1379   -4.3272   -0.7170 H   0  0  0  0  0  0  0  0  0  0  0  0
   -1.1318   -1.4552   -0.2980 H   0  0  0  0  0  0  0  0  0  0  0  0
   -1.7635   -2.6112   -1.4822 H   0  0  0  0  0  0  0  0  0  0  0  0
   -0.1085   -1.9990   -1.6391 H   0  0  0  0  0  0  0  0  0  0  0  0
  1 14  1  0  0  0  0
  1 18  1  0  0  0  0
  2 14  2  0  0  0  0
  3  4  1  0  0  0  0
  3  5  1  0  0  0  0
  3 22  1  0  0  0  0
  3 23  1  0  0  0  0
  4  6  1  0  0  0  0
  4 24  1  0  0  0  0
  4 25  1  0  0  0  0
  5  7  1  0  0  0  0
  5 26  1  0  0  0  0
  5 27  1  0  0  0  0
  6  8  1  0  0  0  0
  6 28  1  0  0  0  0
  6 29  1  0  0  0  0
  7  9  1  0  0  0  0
  7 30  1  0  0  0  0
  7 31  1  0  0  0  0
  8 10  1  0  0  0  0
  8 32  1  0  0  0  0
  8 33  1  0  0  0  0
  9 11  1  0  0  0  0
  9 34  1  0  0  0  0
  9 35  1  0  0  0  0
 10 12  1  0  0  0  0
 10 36  1  0  0  0  0
 10 37  1  0  0  0  0
 11 13  1  0  0  0  0
 11 38  1  0  0  0  0
 11 39  1  0  0  0  0
 12 14  1  0  0  0  0
 12 40  1  0  0  0  0
 12 41  1  0  0  0  0
 13 15  2  0  0  0  0
 13 42  1  0  0  0  0
 15 16  1  0  0  0  0
 15 43  1  0  0  0  0
 16 17  1  0  0  0  0
 16 44  1  0  0  0  0
 16 45  1  0  0  0  0
 17 19  2  0  0  0  0
 17 46  1  0  0  0  0
 18 47  1  0  0  0  0
 18 48  1  0  0  0  0
 18 49  1  0  0  0  0
 19 20  1  0  0  0  0
 19 50  1  0  0  0  0
 20 21  1  0  0  0  0
 20 51  1  0  0  0  0
 20 52  1  0  0  0  0
 21 53  1  0  0  0  0
 21 54  1  0  0  0  0
 21 55  1  0  0  0  0
M  END
> <PUBCHEM_COMPOUND_CID>
5365571

> <PUBCHEM_CONFORMER_RMSD>
1.4

> <PUBCHEM_CONFORMER_DIVERSEORDER>
1
3
72
18
30
26
21
12
7
62
52
42
77
38
44
66
69
57
50
2
71
49
43
17
15
4
27
73
60
33
65
55
45
24
34
14
23
59
47
58
36
46
32
31
5
48
76
63
20
16
51
75
67
9
11
19
61
25
74
22
35
39
8
53
64
68
29
70
37
56
41
13
54
40
6
10
28

> <PUBCHEM_MMFF94_PARTIAL_CHARGES>
16
1 -0.43
11 0.14
12 0.06
13 -0.29
14 0.66
15 -0.29
16 0.28
17 -0.29
18 0.28
19 -0.29
2 -0.57
20 0.14
42 0.15
43 0.15
46 0.15
50 0.15

> <PUBCHEM_EFFECTIVE_ROTOR_COUNT>
15

> <PUBCHEM_PHARMACOPHORE_FEATURES>
2
1 2 acceptor
1 21 hydrophobe

> <PUBCHEM_HEAVY_ATOM_COUNT>
21

> <PUBCHEM_ATOM_DEF_STEREO_COUNT>
0

> <PUBCHEM_ATOM_UDEF_STEREO_COUNT>
0

> <PUBCHEM_BOND_DEF_STEREO_COUNT>
2

> <PUBCHEM_BOND_UDEF_STEREO_COUNT>
0

> <PUBCHEM_ISOTOPIC_ATOM_COUNT>
0

> <PUBCHEM_COMPONENT_COUNT>
1

> <PUBCHEM_CACTVS_TAUTO_COUNT>
1

> <PUBCHEM_CONFORMER_ID>
0051DF4300000001

> <PUBCHEM_MMFF94_ENERGY>
5.8748

> <PUBCHEM_FEATURE_SELFOVERLAP>
10.148

> <PUBCHEM_SHAPE_FINGERPRINT>
10448021 39 18339354163445320919
11014199 57 17690281513010054730
13165054 146 17031353442039734852
13533116 47 18058734735789109169
14295343 760 14834972162656801949
14784336 7 17916301818089340913
14931854 50 18338530676781567868
15003188 105 18336551517254939110
15110567 62 18410015442024503233
15322687 12 18337673121714353354
19026451 147 18261949635972369074
3298306 158 18335420226884344331
484989 97 18264222476530325506
5283384 97 18411134736382440285
5312544 6 18407761443066502990
6669772 16 18196926888653006616

> <PUBCHEM_SHAPE_MULTIPOLES>
420.43
12.63
5.44
1.22
19.96
0.51
-0.09
2.55
-3.86
-4.99
1.46
-0.48
-0.16
-1.37

> <PUBCHEM_SHAPE_SELFOVERLAP>
778.543

> <PUBCHEM_SHAPE_VOLUME>
263.4

> <PUBCHEM_COORDINATE_TYPE>
2
5
10

$$$$
