162868
  -OEChem-09012008293D

 52 53  0     1  0  0  0  0  0999 V2000
    2.6869    0.8978    0.1465 O   0  0  0  0  0  0  0  0  0  0  0  0
    0.6046    0.1081   -0.5494 O   0  0  0  0  0  0  0  0  0  0  0  0
   -0.1471    0.2113    1.6864 O   0  0  0  0  0  0  0  0  0  0  0  0
    1.8130   -2.3304   -1.3247 O   0  0  0  0  0  0  0  0  0  0  0  0
    4.6501   -1.9749   -2.0353 O   0  0  0  0  0  0  0  0  0  0  0  0
    6.0477   -0.5549    0.0589 O   0  0  0  0  0  0  0  0  0  0  0  0
    3.9104    2.5651    1.9574 O   0  0  0  0  0  0  0  0  0  0  0  0
   -3.1399   -2.7713    0.1700 O   0  0  0  0  0  0  0  0  0  0  0  0
   -4.9904    2.1745   -1.6100 O   0  0  0  0  0  0  0  0  0  0  0  0
   -3.7693   -2.0067    2.2626 O   0  0  0  0  0  0  0  0  0  0  0  0
   -3.1701    1.3677   -2.7127 O   0  0  0  0  0  0  0  0  0  0  0  0
    2.5516   -1.1148   -1.2057 C   0  0  2  0  0  0  0  0  0  0  0  0
    4.0095   -1.4370   -0.8774 C   0  0  2  0  0  0  0  0  0  0  0  0
    1.9080   -0.2691   -0.1070 C   0  0  1  0  0  0  0  0  0  0  0  0
    4.7723   -0.1811   -0.4555 C   0  0  1  0  0  0  0  0  0  0  0  0
    3.9996    0.5887    0.6181 C   0  0  1  0  0  0  0  0  0  0  0  0
   -1.4462    1.3146   -0.1222 C   0  0  2  0  0  0  0  0  0  0  0  0
   -2.3650    0.0667   -0.2570 C   0  0  1  0  0  0  0  0  0  0  0  0
   -0.0670    0.9027    0.4305 C   0  0  2  0  0  0  0  0  0  0  0  0
   -2.1925   -0.8293    0.9409 C   0  0  0  0  0  0  0  0  0  0  0  0
    4.6834    1.9058    0.9710 C   0  0  0  0  0  0  0  0  0  0  0  0
   -3.8206    0.4555   -0.5475 C   0  0  0  0  0  0  0  0  0  0  0  0
   -2.0280    2.4182    0.7193 C   0  0  0  0  0  0  0  0  0  0  0  0
   -1.1693   -0.6947    1.7947 C   0  0  0  0  0  0  0  0  0  0  0  0
   -3.1274   -1.9201    1.2271 C   0  0  0  0  0  0  0  0  0  0  0  0
   -3.9185    1.3524   -1.7471 C   0  0  0  0  0  0  0  0  0  0  0  0
   -2.2725    3.6533    0.2687 C   0  0  0  0  0  0  0  0  0  0  0  0
   -4.0133   -3.8978    0.2996 C   0  0  0  0  0  0  0  0  0  0  0  0
    2.4793   -0.6050   -2.1737 H   0  0  0  0  0  0  0  0  0  0  0  0
    4.0751   -2.2120   -0.1048 H   0  0  0  0  0  0  0  0  0  0  0  0
    1.8180   -0.8662    0.8099 H   0  0  0  0  0  0  0  0  0  0  0  0
    4.9468    0.4556   -1.3315 H   0  0  0  0  0  0  0  0  0  0  0  0
    3.9082   -0.0031    1.5392 H   0  0  0  0  0  0  0  0  0  0  0  0
   -1.2671    1.7051   -1.1332 H   0  0  0  0  0  0  0  0  0  0  0  0
   -2.0012   -0.5077   -1.1225 H   0  0  0  0  0  0  0  0  0  0  0  0
    0.5197    1.8139    0.6031 H   0  0  0  0  0  0  0  0  0  0  0  0
    5.6909    1.7424    1.3653 H   0  0  0  0  0  0  0  0  0  0  0  0
    4.7387    2.5630    0.0967 H   0  0  0  0  0  0  0  0  0  0  0  0
   -4.2685    0.9479    0.3241 H   0  0  0  0  0  0  0  0  0  0  0  0
   -4.4256   -0.4330   -0.7632 H   0  0  0  0  0  0  0  0  0  0  0  0
   -2.2633    2.1977    1.7576 H   0  0  0  0  0  0  0  0  0  0  0  0
   -1.0312   -1.2973    2.6831 H   0  0  0  0  0  0  0  0  0  0  0  0
    1.8629   -2.7985   -0.4738 H   0  0  0  0  0  0  0  0  0  0  0  0
    4.5927   -1.3147   -2.7469 H   0  0  0  0  0  0  0  0  0  0  0  0
    5.9039   -1.1092    0.8449 H   0  0  0  0  0  0  0  0  0  0  0  0
    4.3611    3.4017    2.1634 H   0  0  0  0  0  0  0  0  0  0  0  0
   -2.6941    4.4044    0.9275 H   0  0  0  0  0  0  0  0  0  0  0  0
   -2.0596    3.9374   -0.7559 H   0  0  0  0  0  0  0  0  0  0  0  0
   -5.0871    2.7796   -2.3760 H   0  0  0  0  0  0  0  0  0  0  0  0
   -3.7170   -4.5102    1.1565 H   0  0  0  0  0  0  0  0  0  0  0  0
   -5.0497   -3.5626    0.4036 H   0  0  0  0  0  0  0  0  0  0  0  0
   -3.9285   -4.5000   -0.6089 H   0  0  0  0  0  0  0  0  0  0  0  0
  1 14  1  0  0  0  0
  1 16  1  0  0  0  0
  2 14  1  0  0  0  0
  2 19  1  0  0  0  0
  3 19  1  0  0  0  0
  3 24  1  0  0  0  0
  4 12  1  0  0  0  0
  4 43  1  0  0  0  0
  5 13  1  0  0  0  0
  5 44  1  0  0  0  0
  6 15  1  0  0  0  0
  6 45  1  0  0  0  0
  7 21  1  0  0  0  0
  7 46  1  0  0  0  0
  8 25  1  0  0  0  0
  8 28  1  0  0  0  0
  9 26  1  0  0  0  0
  9 49  1  0  0  0  0
 10 25  2  0  0  0  0
 11 26  2  0  0  0  0
 12 13  1  0  0  0  0
 12 14  1  0  0  0  0
 12 29  1  0  0  0  0
 13 15  1  0  0  0  0
 13 30  1  0  0  0  0
 14 31  1  0  0  0  0
 15 16  1  0  0  0  0
 15 32  1  0  0  0  0
 16 21  1  0  0  0  0
 16 33  1  0  0  0  0
 17 18  1  0  0  0  0
 17 19  1  0  0  0  0
 17 23  1  0  0  0  0
 17 34  1  0  0  0  0
 18 20  1  0  0  0  0
 18 22  1  0  0  0  0
 18 35  1  0  0  0  0
 19 36  1  0  0  0  0
 20 24  2  0  0  0  0
 20 25  1  0  0  0  0
 21 37  1  0  0  0  0
 21 38  1  0  0  0  0
 22 26  1  0  0  0  0
 22 39  1  0  0  0  0
 22 40  1  0  0  0  0
 23 27  2  0  0  0  0
 23 41  1  0  0  0  0
 24 42  1  0  0  0  0
 27 47  1  0  0  0  0
 27 48  1  0  0  0  0
 28 50  1  0  0  0  0
 28 51  1  0  0  0  0
 28 52  1  0  0  0  0
M  END
> <PUBCHEM_COMPOUND_CID>
162868

> <PUBCHEM_CONFORMER_RMSD>
1

> <PUBCHEM_CONFORMER_DIVERSEORDER>
1
12
24
16
31
25
26
9
37
42
19
41
38
10
29
28
18
33
7
21
32
14
23
34
30
35
27
11
17
15
20
6
40
4
22
5
3
8
2
36
13
39

> <PUBCHEM_MMFF94_PARTIAL_CHARGES>
37
1 -0.56
10 -0.57
11 -0.57
12 0.28
13 0.28
14 0.56
15 0.28
16 0.28
17 0.14
18 0.14
19 0.56
2 -0.56
20 -0.12
21 0.28
22 0.06
23 -0.29
24 -0.07
25 0.71
26 0.66
27 -0.3
28 0.28
3 -0.36
4 -0.68
41 0.15
42 0.15
43 0.4
44 0.4
45 0.4
46 0.4
47 0.15
48 0.15
49 0.5
5 -0.68
6 -0.68
7 -0.68
8 -0.43
9 -0.65

> <PUBCHEM_EFFECTIVE_ROTOR_COUNT>
10

> <PUBCHEM_PHARMACOPHORE_FEATURES>
18
1 1 acceptor
1 10 acceptor
1 11 acceptor
1 2 acceptor
1 27 hydrophobe
1 3 acceptor
1 4 acceptor
1 4 donor
1 5 acceptor
1 5 donor
1 6 acceptor
1 6 donor
1 7 acceptor
1 7 donor
1 9 acceptor
3 9 11 26 anion
6 1 12 13 14 15 16 rings
6 3 17 18 19 20 24 rings

> <PUBCHEM_HEAVY_ATOM_COUNT>
28

> <PUBCHEM_ATOM_DEF_STEREO_COUNT>
8

> <PUBCHEM_ATOM_UDEF_STEREO_COUNT>
0

> <PUBCHEM_BOND_DEF_STEREO_COUNT>
0

> <PUBCHEM_BOND_UDEF_STEREO_COUNT>
0

> <PUBCHEM_ISOTOPIC_ATOM_COUNT>
0

> <PUBCHEM_COMPONENT_COUNT>
1

> <PUBCHEM_CACTVS_TAUTO_COUNT>
1

> <PUBCHEM_CONFORMER_ID>
00027C3400000001

> <PUBCHEM_MMFF94_ENERGY>
70.7777

> <PUBCHEM_FEATURE_SELFOVERLAP>
91.513

> <PUBCHEM_SHAPE_FINGERPRINT>
10366900 7 18341049606365545708
105312 117 17749948839526377775
11796584 16 17968095262577633970
12403259 415 18410578426738570000
12616971 3 16343714252599812210
12788726 201 18198894813051694897
13034934 17 18056181703974662960
13583140 156 18201441355064139502
14294032 229 16950833701670893229
17980427 23 16660364818228317886
1813 80 17899434244419823739
200 152 17346595231864223524
20642791 268 17627819687870726481
20681677 76 18413388761210783056
21065201 7 17894632556570660898
21424621 283 18191021193353598701
22182313 1 18410576218539739354
22393880 68 18335138678936049938
22620623 9 18187646929495591943
23557571 272 18261395584779396633
23559900 14 18409164394676982320
23598288 3 15984284936023683299
3380486 145 18197220458869123755
4015057 19 18059845147711241801
469060 322 17698424860838537518
508706 21 18340210661766256060
5283173 99 18333723615934092189
59755656 520 18117848698671957777
7399639 24 18200591540003136680
9709674 26 18200316511497699004

> <PUBCHEM_SHAPE_MULTIPOLES>
511.66
11.37
3.65
1.93
10.58
0.56
0.32
1.22
1.95
-4.1
-0.38
-0.93
-0.08
4.21

> <PUBCHEM_SHAPE_SELFOVERLAP>
1057.816

> <PUBCHEM_SHAPE_VOLUME>
285.6

> <PUBCHEM_COORDINATE_TYPE>
2
5
10

$$$$
