520779
  -OEChem-09022009143D

 53 53  0     0  0  0  0  0  0999 V2000
   -4.1836   -1.1305   -0.0715 Si  0  0  0  0  0  0  0  0  0  0  0  0
    4.0132   -1.6877    0.0203 Si  0  0  0  0  0  0  0  0  0  0  0  0
    0.6661    3.7754   -0.1716 Si  0  0  0  0  0  0  0  0  0  0  0  0
   -2.6709   -0.4274    0.0569 O   0  0  0  0  0  0  0  0  0  0  0  0
    2.4877   -2.3668   -0.1040 O   0  0  0  0  0  0  0  0  0  0  0  0
    0.5134    2.1074   -0.1768 O   0  0  0  0  0  0  0  0  0  0  0  0
   -1.5050    1.8607    0.9144 O   0  0  0  0  0  0  0  0  0  0  0  0
   -1.3903   -0.8922    0.0199 C   0  0  0  0  0  0  0  0  0  0  0  0
   -0.3046   -0.0519    0.1576 C   0  0  0  0  0  0  0  0  0  0  0  0
    1.2163   -1.8830   -0.0633 C   0  0  0  0  0  0  0  0  0  0  0  0
   -5.5171    0.1964    0.0830 C   0  0  0  0  0  0  0  0  0  0  0  0
   -4.4097   -1.9725   -1.7371 C   0  0  0  0  0  0  0  0  0  0  0  0
   -4.4740   -2.3895    1.2940 C   0  0  0  0  0  0  0  0  0  0  0  0
    5.3255   -3.0350   -0.1383 C   0  0  0  0  0  0  0  0  0  0  0  0
    4.3184   -0.4330   -1.3460 C   0  0  0  0  0  0  0  0  0  0  0  0
    4.2577   -0.8497    1.6852 C   0  0  0  0  0  0  0  0  0  0  0  0
    0.9943   -0.5181    0.1199 C   0  0  0  0  0  0  0  0  0  0  0  0
    0.6942    4.4434    1.5856 C   0  0  0  0  0  0  0  0  0  0  0  0
   -0.7539    4.5846   -1.1012 C   0  0  0  0  0  0  0  0  0  0  0  0
    2.2756    4.2732   -1.0129 C   0  0  0  0  0  0  0  0  0  0  0  0
   -1.1685   -2.2570   -0.1632 C   0  0  0  0  0  0  0  0  0  0  0  0
   -0.5194    1.4056    0.3538 C   0  0  0  0  0  0  0  0  0  0  0  0
    0.1347   -2.7524   -0.2048 C   0  0  0  0  0  0  0  0  0  0  0  0
   -5.4047    0.9437   -0.7078 H   0  0  0  0  0  0  0  0  0  0  0  0
   -6.5130   -0.2487    0.0010 H   0  0  0  0  0  0  0  0  0  0  0  0
   -5.4415    0.7019    1.0501 H   0  0  0  0  0  0  0  0  0  0  0  0
   -3.7279   -2.8187   -1.8549 H   0  0  0  0  0  0  0  0  0  0  0  0
   -5.4329   -2.3464   -1.8390 H   0  0  0  0  0  0  0  0  0  0  0  0
   -4.2220   -1.2653   -2.5506 H   0  0  0  0  0  0  0  0  0  0  0  0
   -4.3243   -1.9294    2.2752 H   0  0  0  0  0  0  0  0  0  0  0  0
   -5.4985   -2.7712    1.2486 H   0  0  0  0  0  0  0  0  0  0  0  0
   -3.7929   -3.2400    1.2072 H   0  0  0  0  0  0  0  0  0  0  0  0
    5.2396   -3.5390   -1.1053 H   0  0  0  0  0  0  0  0  0  0  0  0
    6.3282   -2.6051   -0.0591 H   0  0  0  0  0  0  0  0  0  0  0  0
    5.2042   -3.7806    0.6528 H   0  0  0  0  0  0  0  0  0  0  0  0
    4.1624   -0.8911   -2.3270 H   0  0  0  0  0  0  0  0  0  0  0  0
    3.6468    0.4252   -1.2580 H   0  0  0  0  0  0  0  0  0  0  0  0
    5.3472   -0.0630   -1.3011 H   0  0  0  0  0  0  0  0  0  0  0  0
    5.2870   -0.4920    1.7842 H   0  0  0  0  0  0  0  0  0  0  0  0
    3.5898    0.0074    1.8045 H   0  0  0  0  0  0  0  0  0  0  0  0
    4.0609   -1.5535    2.4994 H   0  0  0  0  0  0  0  0  0  0  0  0
    1.8205    0.1690    0.2511 H   0  0  0  0  0  0  0  0  0  0  0  0
    1.5139    3.9936    2.1535 H   0  0  0  0  0  0  0  0  0  0  0  0
    0.8327    5.5286    1.5826 H   0  0  0  0  0  0  0  0  0  0  0  0
   -0.2443    4.2194    2.1009 H   0  0  0  0  0  0  0  0  0  0  0  0
   -1.7103    4.3591   -0.6206 H   0  0  0  0  0  0  0  0  0  0  0  0
   -0.6294    5.6712   -1.1236 H   0  0  0  0  0  0  0  0  0  0  0  0
   -0.7935    4.2214   -2.1323 H   0  0  0  0  0  0  0  0  0  0  0  0
    2.3894    5.3611   -1.0139 H   0  0  0  0  0  0  0  0  0  0  0  0
    3.1315    3.8364   -0.4899 H   0  0  0  0  0  0  0  0  0  0  0  0
    2.2900    3.9230   -2.0492 H   0  0  0  0  0  0  0  0  0  0  0  0
   -1.9702   -2.9767   -0.2785 H   0  0  0  0  0  0  0  0  0  0  0  0
    0.3020   -3.8166   -0.3478 H   0  0  0  0  0  0  0  0  0  0  0  0
  1  4  1  0  0  0  0
  1 11  1  0  0  0  0
  1 12  1  0  0  0  0
  1 13  1  0  0  0  0
  2  5  1  0  0  0  0
  2 14  1  0  0  0  0
  2 15  1  0  0  0  0
  2 16  1  0  0  0  0
  3  6  1  0  0  0  0
  3 18  1  0  0  0  0
  3 19  1  0  0  0  0
  3 20  1  0  0  0  0
  4  8  1  0  0  0  0
  5 10  1  0  0  0  0
  6 22  1  0  0  0  0
  7 22  2  0  0  0  0
  8  9  2  0  0  0  0
  8 21  1  0  0  0  0
  9 17  1  0  0  0  0
  9 22  1  0  0  0  0
 10 17  2  0  0  0  0
 10 23  1  0  0  0  0
 11 24  1  0  0  0  0
 11 25  1  0  0  0  0
 11 26  1  0  0  0  0
 12 27  1  0  0  0  0
 12 28  1  0  0  0  0
 12 29  1  0  0  0  0
 13 30  1  0  0  0  0
 13 31  1  0  0  0  0
 13 32  1  0  0  0  0
 14 33  1  0  0  0  0
 14 34  1  0  0  0  0
 14 35  1  0  0  0  0
 15 36  1  0  0  0  0
 15 37  1  0  0  0  0
 15 38  1  0  0  0  0
 16 39  1  0  0  0  0
 16 40  1  0  0  0  0
 16 41  1  0  0  0  0
 17 42  1  0  0  0  0
 18 43  1  0  0  0  0
 18 44  1  0  0  0  0
 18 45  1  0  0  0  0
 19 46  1  0  0  0  0
 19 47  1  0  0  0  0
 19 48  1  0  0  0  0
 20 49  1  0  0  0  0
 20 50  1  0  0  0  0
 20 51  1  0  0  0  0
 21 23  2  0  0  0  0
 21 52  1  0  0  0  0
 23 53  1  0  0  0  0
M  END
> <PUBCHEM_COMPOUND_CID>
520779

> <PUBCHEM_CONFORMER_RMSD>
1

> <PUBCHEM_CONFORMER_DIVERSEORDER>
1
11
28
35
39
12
33
32
37
2
18
16
25
20
36
38
27
7
19
14
29
23
13
31
5
40
10
22
6
15
30
34
3
17
8
9
24
21
26
4

> <PUBCHEM_MMFF94_PARTIAL_CHARGES>
26
1 0.54
10 0.08
11 -0.08
12 -0.08
13 -0.08
14 -0.08
15 -0.08
16 -0.08
17 -0.15
18 -0.08
19 -0.08
2 0.54
20 -0.08
21 -0.15
22 0.63
23 -0.15
3 0.54
4 -0.38
42 0.15
5 -0.38
52 0.15
53 0.15
6 -0.45
7 -0.57
8 0.08
9 0.09

> <PUBCHEM_EFFECTIVE_ROTOR_COUNT>
7

> <PUBCHEM_PHARMACOPHORE_FEATURES>
2
1 7 acceptor
6 8 9 10 17 21 23 rings

> <PUBCHEM_HEAVY_ATOM_COUNT>
23

> <PUBCHEM_ATOM_DEF_STEREO_COUNT>
0

> <PUBCHEM_ATOM_UDEF_STEREO_COUNT>
0

> <PUBCHEM_BOND_DEF_STEREO_COUNT>
0

> <PUBCHEM_BOND_UDEF_STEREO_COUNT>
0

> <PUBCHEM_ISOTOPIC_ATOM_COUNT>
0

> <PUBCHEM_COMPONENT_COUNT>
1

> <PUBCHEM_CACTVS_TAUTO_COUNT>
1

> <PUBCHEM_CONFORMER_ID>
0007F24B00000001

> <PUBCHEM_MMFF94_ENERGY>
43.8805

> <PUBCHEM_FEATURE_SELFOVERLAP>
10.148

> <PUBCHEM_SHAPE_FINGERPRINT>
10411042 1 18410014308027056043
10670039 82 18265913375991803878
1100329 8 18266462181710771882
11045515 52 18336825303712487301
11049842 53 17470735875777910884
12166972 35 17822582633376394814
12788726 201 18045777888671396971
13140716 1 18340494348345065360
13583140 156 16449783211930111545
13590594 115 18337395946548804993
13690498 29 17840042753735664198
138480 1 18337956791556515132
14508225 48 18339633456283324359
14931854 50 18048066179297642380
14955137 171 18411428314651246955
15042514 8 18194689159162336298
15439362 3 18265891552709428717
15927050 60 17764318627314693974
16087824 20 17978793412069205429
167882 2 18192712460752273341
1813 80 18411970382214796570
18785283 64 18046630276512833371
20101258 96 18336559209013676817
20642791 105 18046619002529642872
20642791 239 18045526315573485964
21049683 271 18116449200431053317
23366157 5 17973156524177711267
23402539 116 18271800186067758263
23557571 272 18196656189981161966
23559900 14 18269832167474539195
23845131 108 17116356165426416240
23929065 36 17979047428791855562
24771293 8 18200863089167715560
283562 15 18193277386396302506
3298306 158 17835530696937216572
532947 4 18123756610644274804
5385378 56 18050860110920044241
7164475 11 18265334998078225918
79837 15 17402045600512896066
9981440 41 17330540459681428939

> <PUBCHEM_SHAPE_MULTIPOLES>
504.49
9.77
6.49
1.29
3.56
10.26
-0.08
-10.71
0.34
-4.14
0.46
-0.06
0.37
-0.24

> <PUBCHEM_SHAPE_SELFOVERLAP>
955.793

> <PUBCHEM_SHAPE_VOLUME>
315.1

> <PUBCHEM_COORDINATE_TYPE>
2
5
10

$$$$
