5364744
  -OEChem-09022004143D

 36 35  0     1  0  0  0  0  0999 V2000
   -2.0905    0.6044   -0.4077 C   0  0  0  0  0  0  0  0  0  0  0  0
   -0.9189    0.7000    0.5729 C   0  0  0  0  0  0  0  0  0  0  0  0
   -3.2958   -0.0861    0.2347 C   0  0  0  0  0  0  0  0  0  0  0  0
    2.4255   -0.7652    0.1045 C   0  0  2  0  0  0  0  0  0  0  0  0
    0.2975    1.3613   -0.0784 C   0  0  0  0  0  0  0  0  0  0  0  0
   -4.4863   -0.2352   -0.7148 C   0  0  0  0  0  0  0  0  0  0  0  0
    3.7062   -0.8550   -0.7458 C   0  0  0  0  0  0  0  0  0  0  0  0
    2.4050    0.4801    0.9571 C   0  0  0  0  0  0  0  0  0  0  0  0
    1.4562    1.4250    0.8734 C   0  0  0  0  0  0  0  0  0  0  0  0
    2.3081   -1.9979    1.0046 C   0  0  0  0  0  0  0  0  0  0  0  0
    3.8705    0.3124   -1.7112 C   0  0  0  0  0  0  0  0  0  0  0  0
   -5.6775   -0.9441   -0.0891 C   0  0  0  0  0  0  0  0  0  0  0  0
   -1.7809    0.0431   -1.2976 H   0  0  0  0  0  0  0  0  0  0  0  0
   -2.3772    1.6089   -0.7413 H   0  0  0  0  0  0  0  0  0  0  0  0
   -0.6553   -0.3073    0.9185 H   0  0  0  0  0  0  0  0  0  0  0  0
   -1.2251    1.2723    1.4577 H   0  0  0  0  0  0  0  0  0  0  0  0
   -3.6106    0.4822    1.1187 H   0  0  0  0  0  0  0  0  0  0  0  0
   -2.9960   -1.0806    0.5883 H   0  0  0  0  0  0  0  0  0  0  0  0
    1.5769   -0.8131   -0.5830 H   0  0  0  0  0  0  0  0  0  0  0  0
    0.0396    2.3923   -0.3546 H   0  0  0  0  0  0  0  0  0  0  0  0
    0.5544    0.8770   -1.0251 H   0  0  0  0  0  0  0  0  0  0  0  0
    4.5903   -0.9057   -0.0975 H   0  0  0  0  0  0  0  0  0  0  0  0
    3.6894   -1.7860   -1.3262 H   0  0  0  0  0  0  0  0  0  0  0  0
   -4.8037    0.7571   -1.0568 H   0  0  0  0  0  0  0  0  0  0  0  0
   -4.1726   -0.7927   -1.6054 H   0  0  0  0  0  0  0  0  0  0  0  0
    3.2048    0.6091    1.6824 H   0  0  0  0  0  0  0  0  0  0  0  0
    1.5108    2.2826    1.5386 H   0  0  0  0  0  0  0  0  0  0  0  0
    2.2931   -2.9153    0.4060 H   0  0  0  0  0  0  0  0  0  0  0  0
    3.1491   -2.0680    1.7040 H   0  0  0  0  0  0  0  0  0  0  0  0
    1.3831   -1.9696    1.5914 H   0  0  0  0  0  0  0  0  0  0  0  0
    4.0115    1.2592   -1.1814 H   0  0  0  0  0  0  0  0  0  0  0  0
    4.7497    0.1536   -2.3439 H   0  0  0  0  0  0  0  0  0  0  0  0
    2.9972    0.4066   -2.3644 H   0  0  0  0  0  0  0  0  0  0  0  0
   -6.0429   -0.3952    0.7846 H   0  0  0  0  0  0  0  0  0  0  0  0
   -6.4966   -1.0215   -0.8107 H   0  0  0  0  0  0  0  0  0  0  0  0
   -5.4064   -1.9556    0.2293 H   0  0  0  0  0  0  0  0  0  0  0  0
  1  2  1  0  0  0  0
  1  3  1  0  0  0  0
  1 13  1  0  0  0  0
  1 14  1  0  0  0  0
  2  5  1  0  0  0  0
  2 15  1  0  0  0  0
  2 16  1  0  0  0  0
  3  6  1  0  0  0  0
  3 17  1  0  0  0  0
  3 18  1  0  0  0  0
  4  7  1  0  0  0  0
  4  8  1  0  0  0  0
  4 10  1  0  0  0  0
  4 19  1  0  0  0  0
  5  9  1  0  0  0  0
  5 20  1  0  0  0  0
  5 21  1  0  0  0  0
  6 12  1  0  0  0  0
  6 24  1  0  0  0  0
  6 25  1  0  0  0  0
  7 11  1  0  0  0  0
  7 22  1  0  0  0  0
  7 23  1  0  0  0  0
  8  9  2  0  0  0  0
  8 26  1  0  0  0  0
  9 27  1  0  0  0  0
 10 28  1  0  0  0  0
 10 29  1  0  0  0  0
 10 30  1  0  0  0  0
 11 31  1  0  0  0  0
 11 32  1  0  0  0  0
 11 33  1  0  0  0  0
 12 34  1  0  0  0  0
 12 35  1  0  0  0  0
 12 36  1  0  0  0  0
M  END
> <PUBCHEM_COMPOUND_CID>
5364744

> <PUBCHEM_CONFORMER_RMSD>
0.8

> <PUBCHEM_CONFORMER_DIVERSEORDER>
6
109
136
154
29
207
206
134
186
27
35
208
87
221
44
211
48
215
7
23
193
233
42
180
187
172
102
214
63
71
99
47
97
60
174
202
53
140
166
38
152
49
170
24
159
190
90
81
167
225
145
75
39
61
127
11
219
50
9
184
58
113
137
178
209
143
89
105
45
40
130
19
230
108
2
21
196
226
10
96
150
33
95
194
171
54
227
98
223
31
204
177
162
65
41
189
147
68
120
103
32
70
56
169
220
139
92
106
111
146
80
4
112
144
12
3
205
78
14
125
107
156
232
199
161
34
160
119
153
77
37
185
210
100
176
175
93
198
82
91
124
62
110
16
128
228
66
121
116
218
173
13
182
17
15
164
8
52
192
67
158
85
101
142
25
18
43
165
195
83
123
36
179
132
117
131
217
200
224
163
157
57
229
1
84
216
197
181
188
212
73
74
213
129
94
183
64
141
104
69
148
86
155
26
30
122
115
55
118
149
5
151
72
79
51
231
20
191
28
76
59
22
126
135
88
201
168
114
133
46
203
138
222

> <PUBCHEM_MMFF94_PARTIAL_CHARGES>
6
26 0.15
27 0.15
4 0.14
5 0.14
8 -0.29
9 -0.29

> <PUBCHEM_EFFECTIVE_ROTOR_COUNT>
7

> <PUBCHEM_PHARMACOPHORE_FEATURES>
5
1 10 hydrophobe
1 11 hydrophobe
1 12 hydrophobe
3 1 3 6 hydrophobe
3 2 5 9 hydrophobe

> <PUBCHEM_HEAVY_ATOM_COUNT>
12

> <PUBCHEM_ATOM_DEF_STEREO_COUNT>
0

> <PUBCHEM_ATOM_UDEF_STEREO_COUNT>
1

> <PUBCHEM_BOND_DEF_STEREO_COUNT>
1

> <PUBCHEM_BOND_UDEF_STEREO_COUNT>
0

> <PUBCHEM_ISOTOPIC_ATOM_COUNT>
0

> <PUBCHEM_COMPONENT_COUNT>
1

> <PUBCHEM_CACTVS_TAUTO_COUNT>
1

> <PUBCHEM_CONFORMER_ID>
0051DC0800000006

> <PUBCHEM_MMFF94_ENERGY>
1.5135

> <PUBCHEM_FEATURE_SELFOVERLAP>
25.386

> <PUBCHEM_SHAPE_FINGERPRINT>
11543360 7 17168146741160300413
122479 349 9655282766088566409
12616999 72 17967813846975720778
12670546 177 16950285139319751511
13464513 79 18060700598096397894
13675066 3 15984818216786160625
14251710 61 18060421300557160991
14251718 22 16443350918462089691
14251758 9 16988573355862253241
14252887 29 17632573851399817016
14366163 111 15864067663701407669
15061688 2 14129639812592990420
15501527 24 18336277790388473260
177051 138 17632576054628479353
17834072 8 18271802390108160869
17834074 16 18336823204022411123
20281475 54 18335701577154197841
20388580 30 18131362907700080148
20645477 70 18201152243440436589
20724930 37 10735880555866877492
20767249 442 12035452743964571340
20871998 22 17703508792642436856
20871999 31 18040438759080815437
22169311 14 13542456574975621821
23402655 69 13551188879438909521
23557571 272 17313366912573711540
23590187 173 12107785211535341767
2871803 45 18335140873426402722
3060560 45 17894638088709973988
351380 3 18273495680679759311
42 15 15051737477799390141
58051976 378 17603590724786120442
94968 8 18413670201600823850
960060 61 18259701190406562535

> <PUBCHEM_SHAPE_MULTIPOLES>
246.95
10.31
1.56
1.22
13.88
0.32
-0.26
4.1
-3.21
-0.94
0.44
-1.32
-0.01
-0.22

> <PUBCHEM_SHAPE_SELFOVERLAP>
444.008

> <PUBCHEM_SHAPE_VOLUME>
158.9

> <PUBCHEM_COORDINATE_TYPE>
2
5
10

$$$$
