68057
  -OEChem-09012011543D

 31 32  0     0  0  0  0  0  0999 V2000
   -1.7424   -0.6516    0.0295 C   0  0  0  0  0  0  0  0  0  0  0  0
   -2.5243    0.6291    0.4227 C   0  0  0  0  0  0  0  0  0  0  0  0
   -0.2271   -0.4137    0.0307 C   0  0  0  0  0  0  0  0  0  0  0  0
   -1.9912    1.8718   -0.2751 C   0  0  0  0  0  0  0  0  0  0  0  0
   -0.5504    2.1208    0.1468 C   0  0  0  0  0  0  0  0  0  0  0  0
    0.3150    0.8894    0.0588 C   0  0  0  0  0  0  0  0  0  0  0  0
   -2.1708   -1.1072   -1.3825 C   0  0  0  0  0  0  0  0  0  0  0  0
   -2.1475   -1.7487    1.0403 C   0  0  0  0  0  0  0  0  0  0  0  0
    0.6644   -1.5023   -0.0457 C   0  0  0  0  0  0  0  0  0  0  0  0
    1.7101    1.0671    0.0545 C   0  0  0  0  0  0  0  0  0  0  0  0
    2.5703   -0.0259   -0.0072 C   0  0  0  0  0  0  0  0  0  0  0  0
    2.0470   -1.3109   -0.0618 C   0  0  0  0  0  0  0  0  0  0  0  0
    4.0468    0.1822   -0.0111 C   0  0  0  0  0  0  0  0  0  0  0  0
   -2.4598    0.7889    1.5082 H   0  0  0  0  0  0  0  0  0  0  0  0
   -3.5908    0.5098    0.1937 H   0  0  0  0  0  0  0  0  0  0  0  0
   -2.6042    2.7414   -0.0117 H   0  0  0  0  0  0  0  0  0  0  0  0
   -2.0551    1.7593   -1.3633 H   0  0  0  0  0  0  0  0  0  0  0  0
   -0.5297    2.4774    1.1844 H   0  0  0  0  0  0  0  0  0  0  0  0
   -0.1350    2.9167   -0.4831 H   0  0  0  0  0  0  0  0  0  0  0  0
   -1.8728   -0.3874   -2.1527 H   0  0  0  0  0  0  0  0  0  0  0  0
   -1.7164   -2.0683   -1.6509 H   0  0  0  0  0  0  0  0  0  0  0  0
   -3.2577   -1.2335   -1.4442 H   0  0  0  0  0  0  0  0  0  0  0  0
   -3.2383   -1.8453    1.0974 H   0  0  0  0  0  0  0  0  0  0  0  0
   -1.7565   -2.7343    0.7663 H   0  0  0  0  0  0  0  0  0  0  0  0
   -1.7792   -1.5159    2.0464 H   0  0  0  0  0  0  0  0  0  0  0  0
    0.2918   -2.5218   -0.1029 H   0  0  0  0  0  0  0  0  0  0  0  0
    2.1217    2.0739    0.0969 H   0  0  0  0  0  0  0  0  0  0  0  0
    2.7018   -2.1764   -0.1192 H   0  0  0  0  0  0  0  0  0  0  0  0
    4.3234    1.0468    0.6019 H   0  0  0  0  0  0  0  0  0  0  0  0
    4.5719   -0.6850    0.4035 H   0  0  0  0  0  0  0  0  0  0  0  0
    4.4002    0.3479   -1.0337 H   0  0  0  0  0  0  0  0  0  0  0  0
  1  2  1  0  0  0  0
  1  3  1  0  0  0  0
  1  7  1  0  0  0  0
  1  8  1  0  0  0  0
  2  4  1  0  0  0  0
  2 14  1  0  0  0  0
  2 15  1  0  0  0  0
  3  6  2  0  0  0  0
  3  9  1  0  0  0  0
  4  5  1  0  0  0  0
  4 16  1  0  0  0  0
  4 17  1  0  0  0  0
  5  6  1  0  0  0  0
  5 18  1  0  0  0  0
  5 19  1  0  0  0  0
  6 10  1  0  0  0  0
  7 20  1  0  0  0  0
  7 21  1  0  0  0  0
  7 22  1  0  0  0  0
  8 23  1  0  0  0  0
  8 24  1  0  0  0  0
  8 25  1  0  0  0  0
  9 12  2  0  0  0  0
  9 26  1  0  0  0  0
 10 11  2  0  0  0  0
 10 27  1  0  0  0  0
 11 12  1  0  0  0  0
 11 13  1  0  0  0  0
 12 28  1  0  0  0  0
 13 29  1  0  0  0  0
 13 30  1  0  0  0  0
 13 31  1  0  0  0  0
M  END
> <PUBCHEM_COMPOUND_CID>
68057

> <PUBCHEM_CONFORMER_RMSD>
0.4

> <PUBCHEM_CONFORMER_DIVERSEORDER>
1
2

> <PUBCHEM_MMFF94_PARTIAL_CHARGES>
12
1 0.14
10 -0.15
11 -0.14
12 -0.15
13 0.14
26 0.15
27 0.15
28 0.15
3 -0.14
5 0.14
6 -0.14
9 -0.15

> <PUBCHEM_EFFECTIVE_ROTOR_COUNT>
0.8

> <PUBCHEM_PHARMACOPHORE_FEATURES>
3
3 1 7 8 hydrophobe
6 1 2 3 4 5 6 rings
6 3 6 9 10 11 12 rings

> <PUBCHEM_HEAVY_ATOM_COUNT>
13

> <PUBCHEM_ATOM_DEF_STEREO_COUNT>
0

> <PUBCHEM_ATOM_UDEF_STEREO_COUNT>
0

> <PUBCHEM_BOND_DEF_STEREO_COUNT>
0

> <PUBCHEM_BOND_UDEF_STEREO_COUNT>
0

> <PUBCHEM_ISOTOPIC_ATOM_COUNT>
0

> <PUBCHEM_COMPONENT_COUNT>
1

> <PUBCHEM_CACTVS_TAUTO_COUNT>
1

> <PUBCHEM_CONFORMER_ID>
000109D900000001

> <PUBCHEM_MMFF94_ENERGY>
36.1499

> <PUBCHEM_FEATURE_SELFOVERLAP>
15.243

> <PUBCHEM_SHAPE_FINGERPRINT>
10967382 1 18338237037892880832
11132069 177 18342733010117432056
11206711 2 18410854373754832316
12138202 97 18115017503073823485
12382932 28 18411705365542071856
12423570 1 16454309995373792013
12491281 212 18059017155283481081
12524768 44 18126572223441085135
12932764 1 17917991693982421378
13024252 1 18040435482078452869
13214271 11 18410859888287059674
13380535 21 18267881492387113698
13380535 76 18266173937669975615
14325111 11 18410856538740056976
14614273 12 18261105214899243772
14817 1 13482527483682966445
15775835 57 18272373040104208072
16945 1 18335704918443432248
17844478 74 18262813950505411443
20201158 50 18408601469886664235
20525323 117 18411132515752342938
20588541 1 18410860919211164033
20645476 183 17679892326064140711
20871998 184 18272375260823807383
21061003 4 18193006030414860099
21501502 16 18338792295807944234
21524375 3 17835234546057417453
22802520 49 18055653732229605774
2334 1 18267304429055541976
23402539 116 18340758334304760255
23402655 69 18198047098387630309
23463225 33 18262798467675764906
23552423 10 18334016098779853700
23559900 14 18198625420493155958
241688 4 18268984457158104921
2748010 2 18266735977116996261
3312278 4 18335424568938037898
369184 2 18114181895627089075
5084963 1 17845930861206771426
528886 8 18410853256836397394
53812653 166 18343579621117391568
6333449 129 18342453707966931084
8809292 202 18334303045603136362

> <PUBCHEM_SHAPE_MULTIPOLES>
267.53
4.75
2.09
0.87
3.66
0.43
-0.11
-0.26
-0.02
-1.01
0.1
-0.54
-0.29
0.09

> <PUBCHEM_SHAPE_SELFOVERLAP>
562.364

> <PUBCHEM_SHAPE_VOLUME>
148.5

> <PUBCHEM_COORDINATE_TYPE>
2
5
10

$$$$
