590916
  -OEChem-09022005032D

 55 57  0     1  0  0  0  0  0999 V2000
    3.0101    1.9042    0.0000 O   0  0  0  0  0  0  0  0  0  0  0  0
    3.8167   -1.2407    0.0000 C   0  0  3  0  0  0  0  0  0  0  0  0
    2.9507   -0.7407    0.0000 C   0  0  3  0  0  0  0  0  0  0  0  0
    2.9507    0.2593    0.0000 C   0  0  3  0  0  0  0  0  0  0  0  0
    4.7875   -1.1363    0.0000 C   0  0  3  0  0  0  0  0  0  0  0  0
    3.8167    0.7593    0.0000 C   0  0  3  0  0  0  0  0  0  0  0  0
    4.6827   -0.7407    0.0000 C   0  0  0  0  0  0  0  0  0  0  0  0
    3.6075   -2.2125    0.0000 C   0  0  0  0  0  0  0  0  0  0  0  0
    2.2137   -1.4078    0.0000 C   0  0  0  0  0  0  0  0  0  0  0  0
    3.5265    1.0478    0.0000 C   0  0  3  0  0  0  0  0  0  0  0  0
    4.6827    0.2593    0.0000 C   0  0  0  0  0  0  0  0  0  0  0  0
    2.6188   -2.3156    0.0000 C   0  0  0  0  0  0  0  0  0  0  0  0
    5.3928   -0.3703    0.0000 C   0  0  0  0  0  0  0  0  0  0  0  0
    5.2700    0.5984    0.0000 C   0  0  3  0  0  0  0  0  0  0  0  0
    4.4926    1.1890    0.0000 C   0  0  0  0  0  0  0  0  0  0  0  0
    2.0000    0.5694    0.0000 C   0  0  0  0  0  0  0  0  0  0  0  0
    5.2709   -2.0117    0.0000 C   0  0  0  0  0  0  0  0  0  0  0  0
    3.8167    1.7593    0.0000 C   0  0  0  0  0  0  0  0  0  0  0  0
    6.2615    0.7289    0.0000 C   0  0  0  0  0  0  0  0  0  0  0  0
    5.8788    1.3917    0.0000 C   0  0  0  0  0  0  0  0  0  0  0  0
    5.4961    2.3156    0.0000 C   0  0  0  0  0  0  0  0  0  0  0  0
    2.3840   -0.4893    0.0000 H   0  0  0  0  0  0  0  0  0  0  0  0
    4.5014   -1.6864    0.0000 H   0  0  0  0  0  0  0  0  0  0  0  0
    4.3536    1.0693    0.0000 H   0  0  0  0  0  0  0  0  0  0  0  0
    4.8948   -1.3233    0.0000 H   0  0  0  0  0  0  0  0  0  0  0  0
    5.2933   -0.6331    0.0000 H   0  0  0  0  0  0  0  0  0  0  0  0
    3.6066   -2.8325    0.0000 H   0  0  0  0  0  0  0  0  0  0  0  0
    4.2240   -2.2786    0.0000 H   0  0  0  0  0  0  0  0  0  0  0  0
    1.8482   -0.9069    0.0000 H   0  0  0  0  0  0  0  0  0  0  0  0
    1.6772   -1.7186    0.0000 H   0  0  0  0  0  0  0  0  0  0  0  0
    3.7914    1.6084    0.0000 H   0  0  0  0  0  0  0  0  0  0  0  0
    5.2933    0.1516    0.0000 H   0  0  0  0  0  0  0  0  0  0  0  0
    4.8948    0.8419    0.0000 H   0  0  0  0  0  0  0  0  0  0  0  0
    2.0292   -2.5073    0.0000 H   0  0  0  0  0  0  0  0  0  0  0  0
    2.7475   -2.9221    0.0000 H   0  0  0  0  0  0  0  0  0  0  0  0
    5.7648   -0.8663    0.0000 H   0  0  0  0  0  0  0  0  0  0  0  0
    5.9675   -0.1375    0.0000 H   0  0  0  0  0  0  0  0  0  0  0  0
    4.9815    1.5704    0.0000 H   0  0  0  0  0  0  0  0  0  0  0  0
    4.2490    1.7592    0.0000 H   0  0  0  0  0  0  0  0  0  0  0  0
    2.1923    1.1589    0.0000 H   0  0  0  0  0  0  0  0  0  0  0  0
    1.4106    0.7618    0.0000 H   0  0  0  0  0  0  0  0  0  0  0  0
    1.8077   -0.0200    0.0000 H   0  0  0  0  0  0  0  0  0  0  0  0
    4.7282   -2.3114    0.0000 H   0  0  0  0  0  0  0  0  0  0  0  0
    5.5707   -2.5544    0.0000 H   0  0  0  0  0  0  0  0  0  0  0  0
    5.8137   -1.7120    0.0000 H   0  0  0  0  0  0  0  0  0  0  0  0
    4.4367    1.7593    0.0000 H   0  0  0  0  0  0  0  0  0  0  0  0
    3.8167    2.3793    0.0000 H   0  0  0  0  0  0  0  0  0  0  0  0
    3.1967    1.7593    0.0000 H   0  0  0  0  0  0  0  0  0  0  0  0
    6.3424    0.1142    0.0000 H   0  0  0  0  0  0  0  0  0  0  0  0
    6.8762    0.8098    0.0000 H   0  0  0  0  0  0  0  0  0  0  0  0
    6.1805    1.3436    0.0000 H   0  0  0  0  0  0  0  0  0  0  0  0
    2.3902    1.8924    0.0000 H   0  0  0  0  0  0  0  0  0  0  0  0
    6.4935    1.3108    0.0000 H   0  0  0  0  0  0  0  0  0  0  0  0
    5.8735    2.8075    0.0000 H   0  0  0  0  0  0  0  0  0  0  0  0
    4.8814    2.3965    0.0000 H   0  0  0  0  0  0  0  0  0  0  0  0
  1 10  1  0  0  0  0
  1 52  1  0  0  0  0
  2  3  1  0  0  0  0
  2  5  1  0  0  0  0
  2  7  1  0  0  0  0
  2  8  1  0  0  0  0
  3  4  1  0  0  0  0
  3  9  1  0  0  0  0
  3 22  1  0  0  0  0
  4  6  1  0  0  0  0
  4 10  1  0  0  0  0
  4 16  1  0  0  0  0
  5 13  1  0  0  0  0
  5 17  1  0  0  0  0
  5 23  1  0  0  0  0
  6 11  1  0  0  0  0
  6 18  1  0  0  0  0
  6 24  1  0  0  0  0
  7 11  1  0  0  0  0
  7 25  1  0  0  0  0
  7 26  1  0  0  0  0
  8 12  1  0  0  0  0
  8 27  1  0  0  0  0
  8 28  1  0  0  0  0
  9 12  1  0  0  0  0
  9 29  1  0  0  0  0
  9 30  1  0  0  0  0
 10 15  1  0  0  0  0
 10 31  1  0  0  0  0
 11 32  1  0  0  0  0
 11 33  1  0  0  0  0
 12 34  1  0  0  0  0
 12 35  1  0  0  0  0
 13 14  1  0  0  0  0
 13 36  1  0  0  0  0
 13 37  1  0  0  0  0
 14 15  1  0  0  0  0
 14 19  1  0  0  0  0
 14 20  1  0  0  0  0
 15 38  1  0  0  0  0
 15 39  1  0  0  0  0
 16 40  1  0  0  0  0
 16 41  1  0  0  0  0
 16 42  1  0  0  0  0
 17 43  1  0  0  0  0
 17 44  1  0  0  0  0
 17 45  1  0  0  0  0
 18 46  1  0  0  0  0
 18 47  1  0  0  0  0
 18 48  1  0  0  0  0
 19 49  1  0  0  0  0
 19 50  1  0  0  0  0
 19 51  1  0  0  0  0
 20 21  2  0  0  0  0
 20 53  1  0  0  0  0
 21 54  1  0  0  0  0
 21 55  1  0  0  0  0
M  END
> <PUBCHEM_COMPOUND_CID>
590916

> <PUBCHEM_COMPOUND_CANONICALIZED>
1

> <PUBCHEM_CACTVS_COMPLEXITY>
430

> <PUBCHEM_CACTVS_HBOND_ACCEPTOR>
1

> <PUBCHEM_CACTVS_HBOND_DONOR>
1

> <PUBCHEM_CACTVS_ROTATABLE_BOND>
1

> <PUBCHEM_CACTVS_SUBSKEYS>
AAADcfB4IAAAAAAAAAAAAAAAAAAAAYAAAAAwAAAAAAAYAGDAAAAAGgAACAAADxSggAICAAAAAgCAACBCAAAAAAAgAAAIAAAAAAgAEAIAAAAAQAAEgAAAAAGAwPAPgAAAAAAAAACAAAQAACAAAAAACAAAAA==

> <PUBCHEM_IUPAC_OPENEYE_NAME>
2,4,7,14-tetramethyl-4-vinyl-tricyclo[5.4.3.01,8]tetradecan-6-ol

> <PUBCHEM_IUPAC_CAS_NAME>
4-ethenyl-2,4,7,14-tetramethyl-6-tricyclo[5.4.3.01,8]tetradecanol

> <PUBCHEM_IUPAC_NAME_MARKUP>
4-ethenyl-2,4,7,14-tetramethyltricyclo[5.4.3.0<SUP>1,8</SUP>]tetradecan-6-ol

> <PUBCHEM_IUPAC_NAME>
4-ethenyl-2,4,7,14-tetramethyltricyclo[5.4.3.01,8]tetradecan-6-ol

> <PUBCHEM_IUPAC_SYSTEMATIC_NAME>
4-ethenyl-2,4,7,14-tetramethyl-tricyclo[5.4.3.01,8]tetradecan-6-ol

> <PUBCHEM_IUPAC_TRADITIONAL_NAME>
2,4,7,14-tetramethyl-4-vinyl-tricyclo[5.4.3.01,8]tetradecan-6-ol

> <PUBCHEM_IUPAC_INCHI>
InChI=1S/C20H34O/c1-6-18(4)12-15(3)20-10-7-8-16(20)19(5,17(21)13-18)14(2)9-11-20/h6,14-17,21H,1,7-13H2,2-5H3

> <PUBCHEM_IUPAC_INCHIKEY>
OPVUAGGKMBXOGV-UHFFFAOYSA-N

> <PUBCHEM_XLOGP3_AA>
6.6

> <PUBCHEM_EXACT_MASS>
290.260966

> <PUBCHEM_MOLECULAR_FORMULA>
C20H34O

> <PUBCHEM_MOLECULAR_WEIGHT>
290.5

> <PUBCHEM_OPENEYE_CAN_SMILES>
CC1CCC23CCCC2C1(C(CC(CC3C)(C)C=C)O)C

> <PUBCHEM_OPENEYE_ISO_SMILES>
CC1CCC23CCCC2C1(C(CC(CC3C)(C)C=C)O)C

> <PUBCHEM_CACTVS_TPSA>
20.2

> <PUBCHEM_MONOISOTOPIC_WEIGHT>
290.260966

> <PUBCHEM_TOTAL_CHARGE>
0

> <PUBCHEM_HEAVY_ATOM_COUNT>
21

> <PUBCHEM_ATOM_DEF_STEREO_COUNT>
0

> <PUBCHEM_ATOM_UDEF_STEREO_COUNT>
7

> <PUBCHEM_BOND_DEF_STEREO_COUNT>
0

> <PUBCHEM_BOND_UDEF_STEREO_COUNT>
0

> <PUBCHEM_ISOTOPIC_ATOM_COUNT>
0

> <PUBCHEM_COMPONENT_COUNT>
1

> <PUBCHEM_CACTVS_TAUTO_COUNT>
-1

> <PUBCHEM_COORDINATE_TYPE>
1
5
255

> <PUBCHEM_BONDANNOTATIONS>
10  1  3
14  19  3
2  8  3
3  9  3
4  16  3
5  17  3
6  18  3

$$$$
