132560907
  -OEChem-09182008003D

 38 38  0     1  0  0  0  0  0999 V2000
    1.0971    2.7277   -1.1184 O   0  0  0  0  0  0  0  0  0  0  0  0
    0.5066    2.5505    1.0653 O   0  0  0  0  0  0  0  0  0  0  0  0
    2.5388   -1.3165    0.5095 N   0  0  0  0  0  0  0  0  0  0  0  0
    4.4667   -0.3676   -0.2249 N   0  0  0  0  0  0  0  0  0  0  0  0
    4.1394   -2.7292   -0.4135 N   0  0  0  0  0  0  0  0  0  0  0  0
    2.2543    0.0732    0.7350 C   0  0  2  0  0  0  0  0  0  0  0  0
    1.1081    0.5341   -0.1657 C   0  0  1  0  0  0  0  0  0  0  0  0
   -0.2037   -0.2185    0.1063 C   0  0  0  0  0  0  0  0  0  0  0  0
    3.6053    0.7095    0.3555 C   0  0  0  0  0  0  0  0  0  0  0  0
   -1.3313    0.1690   -0.8548 C   0  0  0  0  0  0  0  0  0  0  0  0
    0.8722    2.0245    0.0221 C   0  0  0  0  0  0  0  0  0  0  0  0
    3.7680   -1.4659   -0.0614 C   0  0  0  0  0  0  0  0  0  0  0  0
   -2.5771   -0.6219   -0.5748 C   0  0  0  0  0  0  0  0  0  0  0  0
   -4.9860   -0.8690    0.0993 C   0  0  0  0  0  0  0  0  0  0  0  0
   -3.7378   -0.0731   -0.1855 C   0  0  0  0  0  0  0  0  0  0  0  0
   -5.4125   -0.6795    1.5546 C   0  0  0  0  0  0  0  0  0  0  0  0
   -6.1082   -0.4475   -0.8488 C   0  0  0  0  0  0  0  0  0  0  0  0
    2.0287    0.2612    1.7910 H   0  0  0  0  0  0  0  0  0  0  0  0
    1.3827    0.3584   -1.2156 H   0  0  0  0  0  0  0  0  0  0  0  0
   -0.5282   -0.0345    1.1394 H   0  0  0  0  0  0  0  0  0  0  0  0
   -0.0370   -1.2991    0.0205 H   0  0  0  0  0  0  0  0  0  0  0  0
    3.5151    1.5247   -0.3685 H   0  0  0  0  0  0  0  0  0  0  0  0
    4.1047    1.1053    1.2474 H   0  0  0  0  0  0  0  0  0  0  0  0
    1.9029   -2.0706    0.7371 H   0  0  0  0  0  0  0  0  0  0  0  0
   -1.0212   -0.0277   -1.8880 H   0  0  0  0  0  0  0  0  0  0  0  0
   -1.5417    1.2423   -0.7854 H   0  0  0  0  0  0  0  0  0  0  0  0
   -2.5128   -1.6992   -0.7068 H   0  0  0  0  0  0  0  0  0  0  0  0
   -4.7923   -1.9375   -0.0598 H   0  0  0  0  0  0  0  0  0  0  0  0
   -3.7990    1.0055   -0.0576 H   0  0  0  0  0  0  0  0  0  0  0  0
    3.5300   -3.5234   -0.2511 H   0  0  0  0  0  0  0  0  0  0  0  0
    5.0377   -2.9126   -0.8470 H   0  0  0  0  0  0  0  0  0  0  0  0
    0.9357    3.6872   -0.9936 H   0  0  0  0  0  0  0  0  0  0  0  0
   -5.8169   -0.6012   -1.8939 H   0  0  0  0  0  0  0  0  0  0  0  0
   -7.0123   -1.0379   -0.6647 H   0  0  0  0  0  0  0  0  0  0  0  0
   -4.6198   -0.9992    2.2403 H   0  0  0  0  0  0  0  0  0  0  0  0
   -6.3051   -1.2744    1.7767 H   0  0  0  0  0  0  0  0  0  0  0  0
   -5.6444    0.3690    1.7738 H   0  0  0  0  0  0  0  0  0  0  0  0
   -6.3663    0.6102   -0.7234 H   0  0  0  0  0  0  0  0  0  0  0  0
  1 11  1  0  0  0  0
  1 32  1  0  0  0  0
  2 11  2  0  0  0  0
  3  6  1  0  0  0  0
  3 12  1  0  0  0  0
  3 24  1  0  0  0  0
  4  9  1  0  0  0  0
  4 12  2  0  0  0  0
  5 12  1  0  0  0  0
  5 30  1  0  0  0  0
  5 31  1  0  0  0  0
  6  7  1  0  0  0  0
  6  9  1  0  0  0  0
  6 18  1  0  0  0  0
  7  8  1  0  0  0  0
  7 11  1  0  0  0  0
  7 19  1  0  0  0  0
  8 10  1  0  0  0  0
  8 20  1  0  0  0  0
  8 21  1  0  0  0  0
  9 22  1  0  0  0  0
  9 23  1  0  0  0  0
 10 13  1  0  0  0  0
 10 25  1  0  0  0  0
 10 26  1  0  0  0  0
 13 15  2  0  0  0  0
 13 27  1  0  0  0  0
 14 15  1  0  0  0  0
 14 16  1  0  0  0  0
 14 17  1  0  0  0  0
 14 28  1  0  0  0  0
 15 29  1  0  0  0  0
 16 35  1  0  0  0  0
 16 36  1  0  0  0  0
 16 37  1  0  0  0  0
 17 33  1  0  0  0  0
 17 34  1  0  0  0  0
 17 38  1  0  0  0  0
M  END
> <PUBCHEM_COMPOUND_CID>
132560907

> <PUBCHEM_CONFORMER_RMSD>
0.8

> <PUBCHEM_CONFORMER_DIVERSEORDER>
2
37
50
51
13
68
65
21
57
26
34
58
15
30
59
5
48
38
18
8
27
36
52
32
61
42
33
23
3
25
63
56
22
41
14
29
53
39
17
9
24
64
28
46
16
19
11
62
60
54
43
40
31
55
49
1
10
67
66
7
44
45
6
47
12
20
4
35

> <PUBCHEM_MMFF94_PARTIAL_CHARGES>
20
1 -0.65
10 0.14
11 0.66
12 0.55
13 -0.29
14 0.14
15 -0.29
2 -0.57
24 0.4
27 0.15
29 0.15
3 -0.82
30 0.4
31 0.4
32 0.5
4 -0.7
5 -0.85
6 0.37
7 0.06
9 0.25

> <PUBCHEM_EFFECTIVE_ROTOR_COUNT>
6.6

> <PUBCHEM_PHARMACOPHORE_FEATURES>
9
1 1 acceptor
1 2 acceptor
1 3 donor
1 5 donor
3 1 2 11 anion
3 14 16 17 hydrophobe
4 3 4 5 12 cation
4 7 8 10 13 hydrophobe
5 3 4 6 9 12 rings

> <PUBCHEM_HEAVY_ATOM_COUNT>
17

> <PUBCHEM_ATOM_DEF_STEREO_COUNT>
2

> <PUBCHEM_ATOM_UDEF_STEREO_COUNT>
0

> <PUBCHEM_BOND_DEF_STEREO_COUNT>
1

> <PUBCHEM_BOND_UDEF_STEREO_COUNT>
0

> <PUBCHEM_ISOTOPIC_ATOM_COUNT>
0

> <PUBCHEM_COMPONENT_COUNT>
1

> <PUBCHEM_CACTVS_TAUTO_COUNT>
3

> <PUBCHEM_CONFORMER_ID>
07E6B80B00000002

> <PUBCHEM_MMFF94_ENERGY>
32.0892

> <PUBCHEM_FEATURE_SELFOVERLAP>
45.773

> <PUBCHEM_SHAPE_FINGERPRINT>
10912923 1 17346597512987872763
11128504 68 13334740137176483595
11545043 162 17603870031505843385
12596602 18 16917065585698697075
12617007 42 17530963613690004148
12841375 25 18334853909534345908
13533116 47 18268428122156289971
13911852 28 18198901418410962575
14251732 14 15502956193857539483
14251764 30 18041003916589684059
14252887 29 18411131437921345186
14341114 176 18410017645880646867
14455015 7 18260834787063883811
14528608 73 8070026662337255259
15242439 84 17821721750611138183
15806764 133 17749374980414423949
15885798 251 18341611477743806536
1813 80 18341624676326117636
18785283 64 17825108361640388292
20388580 30 18335144184972860364
20645477 70 18261664982772372583
21267235 1 18412549786631176758
2215653 11 18187637008358521807
22950370 63 18410860927632313054
23532345 12 18131073727657308161
23559900 14 17967809496854221533
314194 84 18411981368926126111
328317 168 8358252644642302071
345986 75 18129372718227697619
4072396 5 10951777330755619078
42 15 17989207049281305511
43658 37 8214130859480900982
465052 167 18343586252336224935
5104073 3 18127682743660774762
58051976 378 8286210448178207465
621550 5 17967534558385485653
7495541 125 17023183872242158441
9971528 1 18342450465382641337

> <PUBCHEM_SHAPE_MULTIPOLES>
323.17
12.16
2.24
1.04
14.82
0.83
-0.18
-6.7
-0.57
-3.1
0.16
0.95
0.14
0.37

> <PUBCHEM_SHAPE_SELFOVERLAP>
638.902

> <PUBCHEM_SHAPE_VOLUME>
193

> <PUBCHEM_COORDINATE_TYPE>
2
5
10

$$$$
