10476201
  -OEChem-08242021143D

 51 54  0     1  0  0  0  0  0999 V2000
    1.2711   -0.9723   -0.6153 O   0  0  0  0  0  0  0  0  0  0  0  0
    4.4118    0.4695    0.6205 O   0  0  0  0  0  0  0  0  0  0  0  0
    4.2495   -2.1312    1.9790 O   0  0  0  0  0  0  0  0  0  0  0  0
    2.9623   -4.0887    0.3006 O   0  0  0  0  0  0  0  0  0  0  0  0
   -0.2247    0.7497    0.7376 O   0  0  0  0  0  0  0  0  0  0  0  0
   -0.2594   -2.7248   -2.0751 O   0  0  0  0  0  0  0  0  0  0  0  0
    3.6766    2.2048   -1.7251 O   0  0  0  0  0  0  0  0  0  0  0  0
   -6.3835   -1.4400   -1.3732 O   0  0  0  0  0  0  0  0  0  0  0  0
    3.2483   -0.3552    0.6816 C   0  0  1  0  0  0  0  0  0  0  0  0
    2.3711   -0.0594   -0.5447 C   0  0  2  0  0  0  0  0  0  0  0  0
    3.6796   -1.8241    0.7053 C   0  0  2  0  0  0  0  0  0  0  0  0
    2.4890   -2.7568    0.4840 C   0  0  1  0  0  0  0  0  0  0  0  0
    1.6880   -2.3319   -0.7482 C   0  0  1  0  0  0  0  0  0  0  0  0
    1.8014    1.3452   -0.5085 C   0  0  0  0  0  0  0  0  0  0  0  0
    0.4334   -3.1805   -0.9272 C   0  0  0  0  0  0  0  0  0  0  0  0
    0.5881    1.6431    0.1061 C   0  0  0  0  0  0  0  0  0  0  0  0
    2.4802    2.4128   -1.1006 C   0  0  0  0  0  0  0  0  0  0  0  0
    0.0339    2.9179    0.1578 C   0  0  0  0  0  0  0  0  0  0  0  0
    1.9573    3.7081   -1.0700 C   0  0  0  0  0  0  0  0  0  0  0  0
    0.7330    3.9791   -0.4437 C   0  0  0  0  0  0  0  0  0  0  0  0
   -1.2978    1.4470    1.1936 C   0  0  0  0  0  0  0  0  0  0  0  0
   -1.1891    2.7786    0.8653 C   0  0  0  0  0  0  0  0  0  0  0  0
   -2.3153    0.6715    1.9168 C   0  0  0  0  0  0  0  0  0  0  0  0
   -3.4157    0.1010    1.0267 C   0  0  0  0  0  0  0  0  0  0  0  0
   -3.2421   -1.1514    0.4793 C   0  0  0  0  0  0  0  0  0  0  0  0
   -4.5453    0.8571    0.8017 C   0  0  0  0  0  0  0  0  0  0  0  0
   -4.2479   -1.6737   -0.3337 C   0  0  0  0  0  0  0  0  0  0  0  0
   -5.5512    0.3349   -0.0114 C   0  0  0  0  0  0  0  0  0  0  0  0
   -5.4026   -0.9304   -0.5792 C   0  0  0  0  0  0  0  0  0  0  0  0
    2.7212   -0.1104    1.6119 H   0  0  0  0  0  0  0  0  0  0  0  0
    2.9398   -0.1924   -1.4732 H   0  0  0  0  0  0  0  0  0  0  0  0
    4.4621   -2.0194   -0.0384 H   0  0  0  0  0  0  0  0  0  0  0  0
    1.8532   -2.7546    1.3778 H   0  0  0  0  0  0  0  0  0  0  0  0
    2.2914   -2.4240   -1.6615 H   0  0  0  0  0  0  0  0  0  0  0  0
    0.6763   -4.2374   -1.0690 H   0  0  0  0  0  0  0  0  0  0  0  0
   -0.2405   -3.0857   -0.0695 H   0  0  0  0  0  0  0  0  0  0  0  0
    4.9846    0.1347   -0.0902 H   0  0  0  0  0  0  0  0  0  0  0  0
    4.9885   -1.5153    2.1217 H   0  0  0  0  0  0  0  0  0  0  0  0
    3.5189   -4.1029   -0.4967 H   0  0  0  0  0  0  0  0  0  0  0  0
    2.5027    4.5248   -1.5374 H   0  0  0  0  0  0  0  0  0  0  0  0
    0.3390    4.9907   -0.4280 H   0  0  0  0  0  0  0  0  0  0  0  0
   -1.9017    3.5554    1.1051 H   0  0  0  0  0  0  0  0  0  0  0  0
   -0.4782   -1.7878   -1.9332 H   0  0  0  0  0  0  0  0  0  0  0  0
   -1.8394   -0.1509    2.4677 H   0  0  0  0  0  0  0  0  0  0  0  0
   -2.7750    1.2979    2.6931 H   0  0  0  0  0  0  0  0  0  0  0  0
    4.0920    1.3880   -1.4118 H   0  0  0  0  0  0  0  0  0  0  0  0
   -2.3453   -1.7341    0.6651 H   0  0  0  0  0  0  0  0  0  0  0  0
   -4.6671    1.8433    1.2391 H   0  0  0  0  0  0  0  0  0  0  0  0
   -4.1191   -2.6603   -0.7707 H   0  0  0  0  0  0  0  0  0  0  0  0
   -6.4481    0.9189   -0.1992 H   0  0  0  0  0  0  0  0  0  0  0  0
   -6.1141   -2.3229   -1.6796 H   0  0  0  0  0  0  0  0  0  0  0  0
  1 10  1  0  0  0  0
  1 13  1  0  0  0  0
  2  9  1  0  0  0  0
  2 37  1  0  0  0  0
  3 11  1  0  0  0  0
  3 38  1  0  0  0  0
  4 12  1  0  0  0  0
  4 39  1  0  0  0  0
  5 16  1  0  0  0  0
  5 21  1  0  0  0  0
  6 15  1  0  0  0  0
  6 43  1  0  0  0  0
  7 17  1  0  0  0  0
  7 46  1  0  0  0  0
  8 29  1  0  0  0  0
  8 51  1  0  0  0  0
  9 10  1  0  0  0  0
  9 11  1  0  0  0  0
  9 30  1  0  0  0  0
 10 14  1  0  0  0  0
 10 31  1  0  0  0  0
 11 12  1  0  0  0  0
 11 32  1  0  0  0  0
 12 13  1  0  0  0  0
 12 33  1  0  0  0  0
 13 15  1  0  0  0  0
 13 34  1  0  0  0  0
 14 16  1  0  0  0  0
 14 17  2  0  0  0  0
 15 35  1  0  0  0  0
 15 36  1  0  0  0  0
 16 18  2  0  0  0  0
 17 19  1  0  0  0  0
 18 20  1  0  0  0  0
 18 22  1  0  0  0  0
 19 20  2  0  0  0  0
 19 40  1  0  0  0  0
 20 41  1  0  0  0  0
 21 22  2  0  0  0  0
 21 23  1  0  0  0  0
 22 42  1  0  0  0  0
 23 24  1  0  0  0  0
 23 44  1  0  0  0  0
 23 45  1  0  0  0  0
 24 25  2  0  0  0  0
 24 26  1  0  0  0  0
 25 27  1  0  0  0  0
 25 47  1  0  0  0  0
 26 28  2  0  0  0  0
 26 48  1  0  0  0  0
 27 29  2  0  0  0  0
 27 49  1  0  0  0  0
 28 29  1  0  0  0  0
 28 50  1  0  0  0  0
M  END
> <PUBCHEM_COMPOUND_CID>
10476201

> <PUBCHEM_CONFORMER_RMSD>
0.8

> <PUBCHEM_CONFORMER_DIVERSEORDER>
1
29
83
34
59
22
96
97
82
51
57
92
76
3
70
46
25
64
49
55
15
65
13
61
68
93
39
60
75
78
95
77
87
67
40
43
19
17
12
4
81
28
44
98
47
62
69
38
18
91
27
84
89
72
80
50
74
63
58
66
32
11
31
86
79
20
45
8
42
71
88
53
56
54
33
23
94
90
14
73
37
5
10
24
35
52
85
7
2
21
48
36
41
30
6
9
26
16

> <PUBCHEM_MMFF94_PARTIAL_CHARGES>
41
1 -0.56
10 0.42
11 0.28
12 0.28
13 0.28
14 -0.14
15 0.28
16 0.14
17 0.08
19 -0.15
2 -0.68
20 -0.15
21 -0.04
22 -0.15
23 0.32
24 -0.14
25 -0.15
26 -0.15
27 -0.15
28 -0.15
29 0.08
3 -0.68
37 0.4
38 0.4
39 0.4
4 -0.68
40 0.15
41 0.15
42 0.15
43 0.4
46 0.45
47 0.15
48 0.15
49 0.15
5 -0.28
50 0.15
51 0.45
6 -0.68
7 -0.53
8 -0.53
9 0.28

> <PUBCHEM_EFFECTIVE_ROTOR_COUNT>
5.2

> <PUBCHEM_PHARMACOPHORE_FEATURES>
16
1 1 acceptor
1 2 acceptor
1 2 donor
1 3 acceptor
1 3 donor
1 4 acceptor
1 4 donor
1 5 acceptor
1 6 acceptor
1 6 donor
1 7 donor
1 8 donor
5 5 16 18 21 22 rings
6 1 9 10 11 12 13 rings
6 14 16 17 18 19 20 rings
6 24 25 26 27 28 29 rings

> <PUBCHEM_HEAVY_ATOM_COUNT>
29

> <PUBCHEM_ATOM_DEF_STEREO_COUNT>
5

> <PUBCHEM_ATOM_UDEF_STEREO_COUNT>
0

> <PUBCHEM_BOND_DEF_STEREO_COUNT>
0

> <PUBCHEM_BOND_UDEF_STEREO_COUNT>
0

> <PUBCHEM_ISOTOPIC_ATOM_COUNT>
0

> <PUBCHEM_COMPONENT_COUNT>
1

> <PUBCHEM_CACTVS_TAUTO_COUNT>
6

> <PUBCHEM_CONFORMER_ID>
009FDAA900000001

> <PUBCHEM_MMFF94_ENERGY>
71.2338

> <PUBCHEM_FEATURE_SELFOVERLAP>
81.327

> <PUBCHEM_SHAPE_FINGERPRINT>
10622 236 18272923917706862215
1100329 8 18122625217901443824
11069576 57 18409171012672790806
11118852 30 18059860536552514079
11135926 11 18261969551308569004
11552529 35 17838336285739248696
11578080 2 15648477520124707292
12553582 1 18193585305433309537
12717326 68 17903050271306551018
13004483 165 18192984916339841219
13083527 12 18337105679420416584
13782708 43 17241064158245734531
14114206 34 16809571651152048386
14117953 113 18198064677498388175
1454969 45 18408324381063164368
15183329 4 18272940432235884009
15250474 111 18271806878406832015
17134984 74 18124591149044968727
17138139 8 17485925551921619039
18681886 176 18272093841924530912
19026451 147 18411414021137346371
20511986 3 18271795848445597129
20626108 58 18412255125935848465
20645477 70 18187657941454142209
20715895 44 18051974715379551969
20739085 24 18412260602109367054
21315764 371 17418376900023330683
21421861 104 18194429743407079801
22113638 7 18343013432663943239
22393880 68 18198635525860100589
3004659 81 18341898489466144181
3380486 145 18119825615761979808
4280585 95 18053963761161494366
439807 62 18267578199963853903
4409770 3 16035515271824671735
44802255 64 15508339523404574444
46194498 28 18113890598772420381
463206 1 17844520205844254775
474144 1 18341891948083591015
563151 97 18264510509801492356
57527293 21 17904204724883126594
59682541 52 18263065756744684541
613672 6 18187933806992899458
6442390 28 10735002067504031256

> <PUBCHEM_SHAPE_MULTIPOLES>
549.85
10.15
4.99
1.5
14.32
0.41
-0.02
-4.85
0.38
-4.93
1.25
-0.17
-0.24
-2.71

> <PUBCHEM_SHAPE_SELFOVERLAP>
1207.029

> <PUBCHEM_SHAPE_VOLUME>
296.1

> <PUBCHEM_COORDINATE_TYPE>
2
5
10

$$$$
