169727
  -OEChem-08242021213D

 59 61  0     1  0  0  0  0  0999 V2000
   -3.2601    0.7741    0.0525 O   0  0  0  0  0  0  0  0  0  0  0  0
   -2.4041   -1.3292    0.5887 O   0  0  0  0  0  0  0  0  0  0  0  0
   -7.1084   -0.4644    0.7763 O   0  0  0  0  0  0  0  0  0  0  0  0
   -6.6366    1.9508   -0.7403 O   0  0  0  0  0  0  0  0  0  0  0  0
   -4.9854   -2.4402    0.2565 O   0  0  0  0  0  0  0  0  0  0  0  0
    4.1512    1.6207    1.5522 O   0  0  0  0  0  0  0  0  0  0  0  0
    5.9713    2.9789   -0.0659 O   0  0  0  0  0  0  0  0  0  0  0  0
   -2.6045    3.1856   -1.0925 O   0  0  0  0  0  0  0  0  0  0  0  0
    5.5807    0.6244   -0.1693 C   0  0  2  0  0  0  0  0  0  0  0  0
    5.2652   -0.5783   -1.1042 C   0  0  0  0  0  0  0  0  0  0  0  0
    3.8840   -1.0007   -0.7108 C   0  0  0  0  0  0  0  0  0  0  0  0
    3.3469   -0.2251    0.3079 C   0  0  0  0  0  0  0  0  0  0  0  0
    4.3252    0.7835    0.6839 C   0  0  0  0  0  0  0  0  0  0  0  0
   -5.9448   -0.2436   -0.0224 C   0  0  1  0  0  0  0  0  0  0  0  0
   -5.6355    1.2534   -0.0035 C   0  0  1  0  0  0  0  0  0  0  0  0
   -4.7791   -1.0567    0.5407 C   0  0  2  0  0  0  0  0  0  0  0  0
   -4.2644    1.5326   -0.6236 C   0  0  1  0  0  0  0  0  0  0  0  0
   -3.4510   -0.6320   -0.0858 C   0  0  1  0  0  0  0  0  0  0  0  0
    2.0834   -0.4359    0.8288 C   0  0  0  0  0  0  0  0  0  0  0  0
    5.8176    1.9043   -0.9729 C   0  0  0  0  0  0  0  0  0  0  0  0
    6.7760    0.3253    0.7372 C   0  0  0  0  0  0  0  0  0  0  0  0
    1.3339   -1.4812    0.2897 C   0  0  0  0  0  0  0  0  0  0  0  0
    3.1403   -2.0395   -1.2480 C   0  0  0  0  0  0  0  0  0  0  0  0
    1.8582   -2.2779   -0.7419 C   0  0  0  0  0  0  0  0  0  0  0  0
   -0.0407   -1.7600    0.8131 C   0  0  0  0  0  0  0  0  0  0  0  0
   -1.1276   -0.9885    0.0630 C   0  0  0  0  0  0  0  0  0  0  0  0
   -3.8827    3.0052   -0.5105 C   0  0  0  0  0  0  0  0  0  0  0  0
    1.5337    0.4130    1.9239 C   0  0  0  0  0  0  0  0  0  0  0  0
    1.0572   -3.3988   -1.3227 C   0  0  0  0  0  0  0  0  0  0  0  0
    5.2820   -0.2896   -2.1610 H   0  0  0  0  0  0  0  0  0  0  0  0
    5.9672   -1.4063   -0.9564 H   0  0  0  0  0  0  0  0  0  0  0  0
   -6.1963   -0.5806   -1.0356 H   0  0  0  0  0  0  0  0  0  0  0  0
   -5.6734    1.6203    1.0295 H   0  0  0  0  0  0  0  0  0  0  0  0
   -4.7404   -0.9597    1.6322 H   0  0  0  0  0  0  0  0  0  0  0  0
   -4.2496    1.2592   -1.6876 H   0  0  0  0  0  0  0  0  0  0  0  0
   -3.4182   -0.9113   -1.1478 H   0  0  0  0  0  0  0  0  0  0  0  0
    4.9783    2.1338   -1.6390 H   0  0  0  0  0  0  0  0  0  0  0  0
    6.7255    1.8296   -1.5802 H   0  0  0  0  0  0  0  0  0  0  0  0
    7.6906    0.1862    0.1506 H   0  0  0  0  0  0  0  0  0  0  0  0
    6.6086   -0.5880    1.3205 H   0  0  0  0  0  0  0  0  0  0  0  0
    6.9544    1.1305    1.4585 H   0  0  0  0  0  0  0  0  0  0  0  0
    3.5548   -2.6498   -2.0446 H   0  0  0  0  0  0  0  0  0  0  0  0
   -0.1152   -1.5779    1.8921 H   0  0  0  0  0  0  0  0  0  0  0  0
   -0.2717   -2.8314    0.7633 H   0  0  0  0  0  0  0  0  0  0  0  0
   -1.1025   -1.2272   -1.0063 H   0  0  0  0  0  0  0  0  0  0  0  0
   -0.9512    0.0880    0.1679 H   0  0  0  0  0  0  0  0  0  0  0  0
   -3.8215    3.3242    0.5352 H   0  0  0  0  0  0  0  0  0  0  0  0
   -4.5941    3.6496   -1.0348 H   0  0  0  0  0  0  0  0  0  0  0  0
    1.7749    1.4676    1.7573 H   0  0  0  0  0  0  0  0  0  0  0  0
    1.9509    0.1006    2.8866 H   0  0  0  0  0  0  0  0  0  0  0  0
    0.4453    0.4074    2.0055 H   0  0  0  0  0  0  0  0  0  0  0  0
    0.0879   -3.0526   -1.6915 H   0  0  0  0  0  0  0  0  0  0  0  0
    1.5691   -3.8519   -2.1796 H   0  0  0  0  0  0  0  0  0  0  0  0
    0.9122   -4.1935   -0.5839 H   0  0  0  0  0  0  0  0  0  0  0  0
   -7.8254    0.0752    0.4014 H   0  0  0  0  0  0  0  0  0  0  0  0
   -6.6056    1.6371   -1.6602 H   0  0  0  0  0  0  0  0  0  0  0  0
   -5.0235   -2.5473   -0.7094 H   0  0  0  0  0  0  0  0  0  0  0  0
    5.0991    3.1833    0.3111 H   0  0  0  0  0  0  0  0  0  0  0  0
   -1.9822    2.6050   -0.6218 H   0  0  0  0  0  0  0  0  0  0  0  0
  1 17  1  0  0  0  0
  1 18  1  0  0  0  0
  2 18  1  0  0  0  0
  2 26  1  0  0  0  0
  3 14  1  0  0  0  0
  3 55  1  0  0  0  0
  4 15  1  0  0  0  0
  4 56  1  0  0  0  0
  5 16  1  0  0  0  0
  5 57  1  0  0  0  0
  6 13  2  0  0  0  0
  7 20  1  0  0  0  0
  7 58  1  0  0  0  0
  8 27  1  0  0  0  0
  8 59  1  0  0  0  0
  9 10  1  0  0  0  0
  9 13  1  0  0  0  0
  9 20  1  0  0  0  0
  9 21  1  0  0  0  0
 10 11  1  0  0  0  0
 10 30  1  0  0  0  0
 10 31  1  0  0  0  0
 11 12  2  0  0  0  0
 11 23  1  0  0  0  0
 12 13  1  0  0  0  0
 12 19  1  0  0  0  0
 14 15  1  0  0  0  0
 14 16  1  0  0  0  0
 14 32  1  0  0  0  0
 15 17  1  0  0  0  0
 15 33  1  0  0  0  0
 16 18  1  0  0  0  0
 16 34  1  0  0  0  0
 17 27  1  0  0  0  0
 17 35  1  0  0  0  0
 18 36  1  0  0  0  0
 19 22  2  0  0  0  0
 19 28  1  0  0  0  0
 20 37  1  0  0  0  0
 20 38  1  0  0  0  0
 21 39  1  0  0  0  0
 21 40  1  0  0  0  0
 21 41  1  0  0  0  0
 22 24  1  0  0  0  0
 22 25  1  0  0  0  0
 23 24  2  0  0  0  0
 23 42  1  0  0  0  0
 24 29  1  0  0  0  0
 25 26  1  0  0  0  0
 25 43  1  0  0  0  0
 25 44  1  0  0  0  0
 26 45  1  0  0  0  0
 26 46  1  0  0  0  0
 27 47  1  0  0  0  0
 27 48  1  0  0  0  0
 28 49  1  0  0  0  0
 28 50  1  0  0  0  0
 28 51  1  0  0  0  0
 29 52  1  0  0  0  0
 29 53  1  0  0  0  0
 29 54  1  0  0  0  0
M  END
> <PUBCHEM_COMPOUND_CID>
169727

> <PUBCHEM_CONFORMER_RMSD>
1

> <PUBCHEM_CONFORMER_DIVERSEORDER>
1
16
15
5
13
9
22
27
2
17
26
18
14
24
3
11
33
31
20
34
6
23
8
28
4
21
32
19
35
25
12
30
29
36
10
7

> <PUBCHEM_MMFF94_PARTIAL_CHARGES>
34
1 -0.56
10 0.14
11 -0.14
12 0.09
13 0.42
14 0.28
15 0.28
16 0.28
17 0.28
18 0.56
19 -0.14
2 -0.56
20 0.28
22 -0.14
23 -0.15
24 -0.14
25 0.14
26 0.28
27 0.28
28 0.14
29 0.14
3 -0.68
4 -0.68
42 0.15
5 -0.68
55 0.4
56 0.4
57 0.4
58 0.4
59 0.4
6 -0.57
7 -0.68
8 -0.68
9 0.06

> <PUBCHEM_EFFECTIVE_ROTOR_COUNT>
7.6

> <PUBCHEM_PHARMACOPHORE_FEATURES>
16
1 1 acceptor
1 2 acceptor
1 3 acceptor
1 3 donor
1 4 acceptor
1 4 donor
1 5 acceptor
1 5 donor
1 6 acceptor
1 7 acceptor
1 7 donor
1 8 acceptor
1 8 donor
5 9 10 11 12 13 rings
6 1 14 15 16 17 18 rings
6 11 12 19 22 23 24 rings

> <PUBCHEM_HEAVY_ATOM_COUNT>
29

> <PUBCHEM_ATOM_DEF_STEREO_COUNT>
6

> <PUBCHEM_ATOM_UDEF_STEREO_COUNT>
0

> <PUBCHEM_BOND_DEF_STEREO_COUNT>
0

> <PUBCHEM_BOND_UDEF_STEREO_COUNT>
0

> <PUBCHEM_ISOTOPIC_ATOM_COUNT>
0

> <PUBCHEM_COMPONENT_COUNT>
1

> <PUBCHEM_CACTVS_TAUTO_COUNT>
1

> <PUBCHEM_CONFORMER_ID>
000296FF00000001

> <PUBCHEM_MMFF94_ENERGY>
90.5907

> <PUBCHEM_FEATURE_SELFOVERLAP>
81.346

> <PUBCHEM_SHAPE_FINGERPRINT>
10670039 82 18114747040577973732
10673678 19 18269845362352693652
11135609 149 16628854859728798564
11497681 19 17488170686448000399
11595378 159 17313660443644473381
11719270 70 18130783426655296350
11991303 11 17703510003507178670
12596602 18 16732702778603349697
12730499 353 18343587321751465146
12769317 202 18131063818972583994
13402501 40 18411417314933871353
13685833 64 8790886289311278199
14739800 52 18041552555521651586
14933364 13 18411422812686968107
15183329 4 16056879126238147732
15348495 7 8214130850917437671
15419008 145 18041265575325808144
15475509 35 10519438351377834316
15961568 22 18333169466295015573
18608769 82 18339645637570594707
19377110 9 16298104276902067947
19611394 137 17896333591569752851
20511986 3 17240754048442303543
20715895 44 18341613737798651752
21033648 29 18271235140638872714
21859007 373 18341879802480619520
221357 26 17846779589709991233
23559900 14 18411974776562978369
2838139 119 18410567423079746030
34797466 226 18130797732763611247
4073 2 18261117408391148659
44062 13 10663805396019610781
44249763 50 18130211770053508179
46194498 28 18200600180891819390
497634 4 17846786187634254643
5104073 3 18042127566133870747
7808743 9 18408318912641622091

> <PUBCHEM_SHAPE_MULTIPOLES>
549.85
18.62
3.3
1.24
10.56
0.63
-0.15
9.68
0.83
0.47
1.27
-0.95
0.01
2.01

> <PUBCHEM_SHAPE_SELFOVERLAP>
1166.749

> <PUBCHEM_SHAPE_VOLUME>
308.7

> <PUBCHEM_COORDINATE_TYPE>
2
5
10

$$$$
