12358447
  -OEChem-11232003473D

 81 85  0     1  0  0  0  0  0999 V2000
    6.9115    1.1437    0.5633 O   0  0  0  0  0  0  0  0  0  0  0  0
    0.4897   -0.8590   -0.2218 C   0  0  2  0  0  0  0  0  0  0  0  0
    1.1669    0.5421    0.0617 C   0  0  1  0  0  0  0  0  0  0  0  0
    2.6878    0.7238   -0.3859 C   0  0  2  0  0  0  0  0  0  0  0  0
   -0.9264   -0.9539    0.5769 C   0  0  1  0  0  0  0  0  0  0  0  0
    3.4933   -0.4958    0.1996 C   0  0  1  0  0  0  0  0  0  0  0  0
    1.4539   -1.9886    0.2276 C   0  0  0  0  0  0  0  0  0  0  0  0
    2.8920   -1.8328   -0.2744 C   0  0  0  0  0  0  0  0  0  0  0  0
    5.0607   -0.4016    0.1081 C   0  0  0  0  0  0  0  0  0  0  0  0
    0.2217    1.6787   -0.3726 C   0  0  0  0  0  0  0  0  0  0  0  0
   -1.8271    0.2521    0.1941 C   0  0  0  0  0  0  0  0  0  0  0  0
    3.2543    2.0208    0.2745 C   0  0  0  0  0  0  0  0  0  0  0  0
   -1.6211   -2.3174    0.2728 C   0  0  0  0  0  0  0  0  0  0  0  0
   -1.1259    1.5952    0.3433 C   0  0  0  0  0  0  0  0  0  0  0  0
   -3.8678   -1.2279   -0.1837 C   0  0  1  0  0  0  0  0  0  0  0  0
    0.2228   -1.0509   -1.7473 C   0  0  0  0  0  0  0  0  0  0  0  0
   -3.1228    0.1195   -0.1995 C   0  0  0  0  0  0  0  0  0  0  0  0
    5.5083    0.9490    0.7393 C   0  0  2  0  0  0  0  0  0  0  0  0
    2.8323    0.8901   -1.9173 C   0  0  0  0  0  0  0  0  0  0  0  0
    4.7727    2.1635    0.1830 C   0  0  0  0  0  0  0  0  0  0  0  0
   -3.1001   -2.3061    0.6176 C   0  0  0  0  0  0  0  0  0  0  0  0
   -0.7480   -0.9035    2.1268 C   0  0  0  0  0  0  0  0  0  0  0  0
   -3.9906    1.2722   -0.6972 C   0  0  0  0  0  0  0  0  0  0  0  0
   -5.2539   -1.0879    0.5086 C   0  0  0  0  0  0  0  0  0  0  0  0
    5.6164   -0.5722   -1.3200 C   0  0  0  0  0  0  0  0  0  0  0  0
    5.7069   -1.5343    0.9548 C   0  0  0  0  0  0  0  0  0  0  0  0
   -5.3218    1.4271    0.0694 C   0  0  0  0  0  0  0  0  0  0  0  0
   -6.0925    0.0937    0.0241 C   0  0  0  0  0  0  0  0  0  0  0  0
   -4.0608   -1.7225   -1.6371 C   0  0  0  0  0  0  0  0  0  0  0  0
   -5.0592    1.8679    1.5231 C   0  0  0  0  0  0  0  0  0  0  0  0
   -6.1737    2.5150   -0.6122 C   0  0  0  0  0  0  0  0  0  0  0  0
    1.2302    0.6245    1.1541 H   0  0  0  0  0  0  0  0  0  0  0  0
    3.2969   -0.4702    1.2853 H   0  0  0  0  0  0  0  0  0  0  0  0
    1.0778   -2.9660   -0.0981 H   0  0  0  0  0  0  0  0  0  0  0  0
    1.5008   -2.0328    1.3210 H   0  0  0  0  0  0  0  0  0  0  0  0
    3.4567   -2.6786    0.1282 H   0  0  0  0  0  0  0  0  0  0  0  0
    2.9319   -1.9354   -1.3622 H   0  0  0  0  0  0  0  0  0  0  0  0
    0.0522    1.6707   -1.4539 H   0  0  0  0  0  0  0  0  0  0  0  0
    0.6577    2.6542   -0.1362 H   0  0  0  0  0  0  0  0  0  0  0  0
    2.9767    2.0437    1.3367 H   0  0  0  0  0  0  0  0  0  0  0  0
    2.8053    2.9110   -0.1811 H   0  0  0  0  0  0  0  0  0  0  0  0
   -1.1341   -3.1260    0.8325 H   0  0  0  0  0  0  0  0  0  0  0  0
   -1.5365   -2.6027   -0.7763 H   0  0  0  0  0  0  0  0  0  0  0  0
   -1.7204    2.4409   -0.0012 H   0  0  0  0  0  0  0  0  0  0  0  0
   -0.9735    1.7857    1.4133 H   0  0  0  0  0  0  0  0  0  0  0  0
   -0.5924   -0.4207   -2.1139 H   0  0  0  0  0  0  0  0  0  0  0  0
    1.0902   -0.8372   -2.3644 H   0  0  0  0  0  0  0  0  0  0  0  0
   -0.0310   -2.0870   -1.9913 H   0  0  0  0  0  0  0  0  0  0  0  0
    5.3237    0.9228    1.8220 H   0  0  0  0  0  0  0  0  0  0  0  0
    1.9697    1.3914   -2.3628 H   0  0  0  0  0  0  0  0  0  0  0  0
    3.6853    1.5130   -2.1963 H   0  0  0  0  0  0  0  0  0  0  0  0
    2.9742   -0.0581   -2.4381 H   0  0  0  0  0  0  0  0  0  0  0  0
    5.0948    2.3647   -0.8443 H   0  0  0  0  0  0  0  0  0  0  0  0
    5.0829    3.0547    0.7443 H   0  0  0  0  0  0  0  0  0  0  0  0
   -3.5247   -3.2992    0.4202 H   0  0  0  0  0  0  0  0  0  0  0  0
   -3.2173   -2.1475    1.6965 H   0  0  0  0  0  0  0  0  0  0  0  0
   -0.1374   -0.0667    2.4717 H   0  0  0  0  0  0  0  0  0  0  0  0
   -1.7134   -0.7989    2.6364 H   0  0  0  0  0  0  0  0  0  0  0  0
   -0.2879   -1.8185    2.5142 H   0  0  0  0  0  0  0  0  0  0  0  0
   -3.4786    2.2350   -0.6903 H   0  0  0  0  0  0  0  0  0  0  0  0
   -4.2023    1.0922   -1.7599 H   0  0  0  0  0  0  0  0  0  0  0  0
   -5.1200   -0.9854    1.5935 H   0  0  0  0  0  0  0  0  0  0  0  0
   -5.8330   -2.0104    0.3694 H   0  0  0  0  0  0  0  0  0  0  0  0
    5.2040   -1.4607   -1.8086 H   0  0  0  0  0  0  0  0  0  0  0  0
    5.4189    0.2888   -1.9587 H   0  0  0  0  0  0  0  0  0  0  0  0
    6.7060   -0.6969   -1.3074 H   0  0  0  0  0  0  0  0  0  0  0  0
    6.7960   -1.4339    1.0129 H   0  0  0  0  0  0  0  0  0  0  0  0
    5.3201   -1.5331    1.9800 H   0  0  0  0  0  0  0  0  0  0  0  0
    5.5197   -2.5233    0.5249 H   0  0  0  0  0  0  0  0  0  0  0  0
   -6.4325   -0.1061   -0.9999 H   0  0  0  0  0  0  0  0  0  0  0  0
   -7.0017    0.1611    0.6353 H   0  0  0  0  0  0  0  0  0  0  0  0
   -4.5089   -2.7227   -1.6556 H   0  0  0  0  0  0  0  0  0  0  0  0
   -4.7199   -1.0691   -2.2172 H   0  0  0  0  0  0  0  0  0  0  0  0
   -3.1097   -1.7752   -2.1782 H   0  0  0  0  0  0  0  0  0  0  0  0
    7.3755    0.5766    1.2011 H   0  0  0  0  0  0  0  0  0  0  0  0
   -4.5465    2.8364    1.5507 H   0  0  0  0  0  0  0  0  0  0  0  0
   -5.9994    1.9753    2.0757 H   0  0  0  0  0  0  0  0  0  0  0  0
   -4.4349    1.1560    2.0716 H   0  0  0  0  0  0  0  0  0  0  0  0
   -5.6595    3.4827   -0.6064 H   0  0  0  0  0  0  0  0  0  0  0  0
   -6.3853    2.2583   -1.6564 H   0  0  0  0  0  0  0  0  0  0  0  0
   -7.1339    2.6436   -0.1000 H   0  0  0  0  0  0  0  0  0  0  0  0
  1 18  1  0  0  0  0
  1 75  1  0  0  0  0
  2  3  1  0  0  0  0
  2  5  1  0  0  0  0
  2  7  1  0  0  0  0
  2 16  1  0  0  0  0
  3  4  1  0  0  0  0
  3 10  1  0  0  0  0
  3 32  1  0  0  0  0
  4  6  1  0  0  0  0
  4 12  1  0  0  0  0
  4 19  1  0  0  0  0
  5 11  1  0  0  0  0
  5 13  1  0  0  0  0
  5 22  1  0  0  0  0
  6  8  1  0  0  0  0
  6  9  1  0  0  0  0
  6 33  1  0  0  0  0
  7  8  1  0  0  0  0
  7 34  1  0  0  0  0
  7 35  1  0  0  0  0
  8 36  1  0  0  0  0
  8 37  1  0  0  0  0
  9 18  1  0  0  0  0
  9 25  1  0  0  0  0
  9 26  1  0  0  0  0
 10 14  1  0  0  0  0
 10 38  1  0  0  0  0
 10 39  1  0  0  0  0
 11 14  1  0  0  0  0
 11 17  2  0  0  0  0
 12 20  1  0  0  0  0
 12 40  1  0  0  0  0
 12 41  1  0  0  0  0
 13 21  1  0  0  0  0
 13 42  1  0  0  0  0
 13 43  1  0  0  0  0
 14 44  1  0  0  0  0
 14 45  1  0  0  0  0
 15 17  1  0  0  0  0
 15 21  1  0  0  0  0
 15 24  1  0  0  0  0
 15 29  1  0  0  0  0
 16 46  1  0  0  0  0
 16 47  1  0  0  0  0
 16 48  1  0  0  0  0
 17 23  1  0  0  0  0
 18 20  1  0  0  0  0
 18 49  1  0  0  0  0
 19 50  1  0  0  0  0
 19 51  1  0  0  0  0
 19 52  1  0  0  0  0
 20 53  1  0  0  0  0
 20 54  1  0  0  0  0
 21 55  1  0  0  0  0
 21 56  1  0  0  0  0
 22 57  1  0  0  0  0
 22 58  1  0  0  0  0
 22 59  1  0  0  0  0
 23 27  1  0  0  0  0
 23 60  1  0  0  0  0
 23 61  1  0  0  0  0
 24 28  1  0  0  0  0
 24 62  1  0  0  0  0
 24 63  1  0  0  0  0
 25 64  1  0  0  0  0
 25 65  1  0  0  0  0
 25 66  1  0  0  0  0
 26 67  1  0  0  0  0
 26 68  1  0  0  0  0
 26 69  1  0  0  0  0
 27 28  1  0  0  0  0
 27 30  1  0  0  0  0
 27 31  1  0  0  0  0
 28 70  1  0  0  0  0
 28 71  1  0  0  0  0
 29 72  1  0  0  0  0
 29 73  1  0  0  0  0
 29 74  1  0  0  0  0
 30 76  1  0  0  0  0
 30 77  1  0  0  0  0
 30 78  1  0  0  0  0
 31 79  1  0  0  0  0
 31 80  1  0  0  0  0
 31 81  1  0  0  0  0
M  END
> <PUBCHEM_COMPOUND_CID>
12358447

> <PUBCHEM_CONFORMER_RMSD>
0.8

> <PUBCHEM_CONFORMER_DIVERSEORDER>
1

> <PUBCHEM_MMFF94_PARTIAL_CHARGES>
9
1 -0.68
11 -0.28
14 0.14
15 0.14
17 -0.28
18 0.28
23 0.14
5 0.14
75 0.4

> <PUBCHEM_EFFECTIVE_ROTOR_COUNT>
2.8

> <PUBCHEM_PHARMACOPHORE_FEATURES>
9
1 1 acceptor
1 1 donor
3 27 30 31 hydrophobe
3 9 25 26 hydrophobe
6 15 17 23 24 27 28 rings
6 2 3 4 6 7 8 rings
6 2 3 5 10 11 14 rings
6 4 6 9 12 18 20 rings
6 5 11 13 15 17 21 rings

> <PUBCHEM_HEAVY_ATOM_COUNT>
31

> <PUBCHEM_ATOM_DEF_STEREO_COUNT>
7

> <PUBCHEM_ATOM_UDEF_STEREO_COUNT>
0

> <PUBCHEM_BOND_DEF_STEREO_COUNT>
0

> <PUBCHEM_BOND_UDEF_STEREO_COUNT>
0

> <PUBCHEM_ISOTOPIC_ATOM_COUNT>
0

> <PUBCHEM_COMPONENT_COUNT>
1

> <PUBCHEM_CACTVS_TAUTO_COUNT>
1

> <PUBCHEM_CONFORMER_ID>
00BC932F00000001

> <PUBCHEM_MMFF94_ENERGY>
137.1728

> <PUBCHEM_FEATURE_SELFOVERLAP>
45.733

> <PUBCHEM_SHAPE_FINGERPRINT>
10835480 77 18342451565084653944
10906281 52 18187662305356971442
11578080 2 17272834644723187664
12166972 35 18187087273476339684
12236239 1 18260547809758975443
12422481 6 17822011982419634365
12616971 3 17458350753194414364
12633257 1 17022900202806100668
12788726 201 17489028133101327769
13224815 77 18202291328617348438
13402501 40 18410291419390528648
13533116 47 17895752890548411714
13583140 156 18127975415443353442
13690498 29 17274246388216533839
13811026 1 18411696586581439224
13911987 19 16630527375084727304
144659 39 18131912663291922437
14790565 3 18337956693036005041
14856354 85 15502381140485928459
14955137 171 12468356860152173510
15021287 119 17095526201290300373
15131766 46 15504936526057979039
15183329 4 18409449176171576459
15196674 1 18410292535960375024
15238133 3 18187372038582245356
15484559 13 15808583785638797589
15788980 27 18343021111843591039
17349148 13 18186803590864787468
17980427 23 18187930620100213844
1813 80 16443061707996098046
18608769 82 18337955701468590347
20511986 3 18341881983447954763
20715895 44 18338233765265107201
21033648 144 18335975432653204021
21033648 29 18129931390931573720
21130935 74 18335136479849614978
21236236 1 18411980286957805693
21267235 1 18336837458449277523
21279426 13 18411702054138136756
21421861 104 17749940047681272450
21859007 373 17533205380665788541
22393880 68 18272091616688418751
23402539 116 18411133636897140879
23522609 53 17970375683315090108
23559900 14 18412542141484044384
23569914 2 17620137279558375169
23569943 247 17314776404965976058
24771293 8 18338227297878420068
2838139 119 18340481252937097045
3004659 81 18334580140119224404
32027 91 17058392300638482742
335352 9 18408885109579419108
34797466 226 17489595588163997692
34934 24 18410851045070865931
350125 39 18408322173043987156
3680242 22 18188490177324948074
38695281 34 18272369763113467407
404807 14 17191801385076196022
4073 2 18041845129242526762
4093350 32 17274829012576075254
4144715 1 18335432261272711083
4340502 62 18334859398301895086
5104073 3 18407761447292606779
5283173 99 18410009927286845921
57724786 102 17023477446463743036
59755656 215 18337956688556337166
59755656 520 17022905640393265267
6086070 43 17489296529596582281
7226269 152 18343302539971599433

> <PUBCHEM_SHAPE_MULTIPOLES>
632.1
15.57
2.61
1.34
2.87
0.14
-0.14
5.16
0.84
-1.24
0.14
-0.02
-0.18
-0.08

> <PUBCHEM_SHAPE_SELFOVERLAP>
1336.151

> <PUBCHEM_SHAPE_VOLUME>
352.7

> <PUBCHEM_COORDINATE_TYPE>
2
5
10

$$$$
