44258378
  -OEChem-09052011223D

 53 55  0     0  0  0  0  0  0999 V2000
   -0.6011   -0.0211    0.1610 O   0  0  0  0  0  0  0  0  0  0  0  0
   -4.4880    2.6920    0.4772 O   0  0  0  0  0  0  0  0  0  0  0  0
   -4.9699   -1.8753   -0.7868 O   0  0  0  0  0  0  0  0  0  0  0  0
   -2.7836   -3.2851   -0.9264 O   0  0  0  0  0  0  0  0  0  0  0  0
    5.5965   -1.2226    0.5025 O   0  0  0  0  0  0  0  0  0  0  0  0
    4.0348   -2.8975    2.0523 O   0  0  0  0  0  0  0  0  0  0  0  0
   -1.9646    0.0759    0.0447 C   0  0  0  0  0  0  0  0  0  0  0  0
   -2.7704   -0.9997   -0.3249 C   0  0  0  0  0  0  0  0  0  0  0  0
   -2.5400    1.3176    0.3150 C   0  0  0  0  0  0  0  0  0  0  0  0
   -4.7274    0.4003   -0.1570 C   0  0  0  0  0  0  0  0  0  0  0  0
   -3.9221    1.4784    0.2136 C   0  0  0  0  0  0  0  0  0  0  0  0
   -4.1545   -0.8430   -0.4275 C   0  0  0  0  0  0  0  0  0  0  0  0
   -0.0001   -1.2410   -0.1099 C   0  0  0  0  0  0  0  0  0  0  0  0
    1.4679   -1.2352    0.0497 C   0  0  0  0  0  0  0  0  0  0  0  0
   -2.1375   -2.2982   -0.6021 C   0  0  0  0  0  0  0  0  0  0  0  0
    3.6382   -0.3829   -0.5832 C   0  0  0  0  0  0  0  0  0  0  0  0
   -0.6678   -2.3496   -0.4667 C   0  0  0  0  0  0  0  0  0  0  0  0
    2.2515   -0.3882   -0.7342 C   0  0  0  0  0  0  0  0  0  0  0  0
   -1.6832    2.4775    0.7126 C   0  0  0  0  0  0  0  0  0  0  0  0
    4.4607    0.5302   -1.4312 C   0  0  0  0  0  0  0  0  0  0  0  0
    2.0709   -2.0765    0.9847 C   0  0  0  0  0  0  0  0  0  0  0  0
    4.2412   -1.2244    0.3517 C   0  0  0  0  0  0  0  0  0  0  0  0
   -6.2088    0.5816   -0.2636 C   0  0  0  0  0  0  0  0  0  0  0  0
    3.4575   -2.0711    1.1358 C   0  0  0  0  0  0  0  0  0  0  0  0
    4.9714    1.7317   -0.6750 C   0  0  0  0  0  0  0  0  0  0  0  0
    4.3655    2.9216   -0.4999 C   0  0  0  0  0  0  0  0  0  0  0  0
   -4.8830    2.9413    1.8237 C   0  0  0  0  0  0  0  0  0  0  0  0
    4.9344    4.0803    0.2688 C   0  0  0  0  0  0  0  0  0  0  0  0
    3.0115    3.1832   -1.1046 C   0  0  0  0  0  0  0  0  0  0  0  0
   -0.1756   -3.2943   -0.6697 H   0  0  0  0  0  0  0  0  0  0  0  0
    1.7784    0.2596   -1.4683 H   0  0  0  0  0  0  0  0  0  0  0  0
   -0.7255    2.4675    0.1807 H   0  0  0  0  0  0  0  0  0  0  0  0
   -2.1461    3.4394    0.4698 H   0  0  0  0  0  0  0  0  0  0  0  0
   -1.4873    2.4466    1.7890 H   0  0  0  0  0  0  0  0  0  0  0  0
    5.3244   -0.0206   -1.8280 H   0  0  0  0  0  0  0  0  0  0  0  0
    3.9161    0.8293   -2.3340 H   0  0  0  0  0  0  0  0  0  0  0  0
    1.4640   -2.7353    1.6024 H   0  0  0  0  0  0  0  0  0  0  0  0
   -6.6892    0.3013    0.6791 H   0  0  0  0  0  0  0  0  0  0  0  0
   -6.4825    1.6144   -0.5028 H   0  0  0  0  0  0  0  0  0  0  0  0
   -6.6309   -0.0308   -1.0677 H   0  0  0  0  0  0  0  0  0  0  0  0
    5.9528    1.5991   -0.2206 H   0  0  0  0  0  0  0  0  0  0  0  0
   -4.4558   -2.6795   -0.9536 H   0  0  0  0  0  0  0  0  0  0  0  0
   -5.3131    3.9454    1.8729 H   0  0  0  0  0  0  0  0  0  0  0  0
   -4.0209    2.8992    2.4964 H   0  0  0  0  0  0  0  0  0  0  0  0
   -5.6419    2.2219    2.1465 H   0  0  0  0  0  0  0  0  0  0  0  0
    5.8299   -1.8664    1.1936 H   0  0  0  0  0  0  0  0  0  0  0  0
    5.0605    4.9490   -0.3852 H   0  0  0  0  0  0  0  0  0  0  0  0
    4.2683    4.3547    1.0929 H   0  0  0  0  0  0  0  0  0  0  0  0
    5.9131    3.8380    0.6960 H   0  0  0  0  0  0  0  0  0  0  0  0
    2.2610    3.2684   -0.3114 H   0  0  0  0  0  0  0  0  0  0  0  0
    3.0292    4.1302   -1.6562 H   0  0  0  0  0  0  0  0  0  0  0  0
    2.6661    2.4272   -1.8096 H   0  0  0  0  0  0  0  0  0  0  0  0
    3.3398   -3.4092    2.5005 H   0  0  0  0  0  0  0  0  0  0  0  0
  1  7  1  0  0  0  0
  1 13  1  0  0  0  0
  2 11  1  0  0  0  0
  2 27  1  0  0  0  0
  3 12  1  0  0  0  0
  3 42  1  0  0  0  0
  4 15  2  0  0  0  0
  5 22  1  0  0  0  0
  5 46  1  0  0  0  0
  6 24  1  0  0  0  0
  6 53  1  0  0  0  0
  7  8  2  0  0  0  0
  7  9  1  0  0  0  0
  8 12  1  0  0  0  0
  8 15  1  0  0  0  0
  9 11  2  0  0  0  0
  9 19  1  0  0  0  0
 10 11  1  0  0  0  0
 10 12  2  0  0  0  0
 10 23  1  0  0  0  0
 13 14  1  0  0  0  0
 13 17  2  0  0  0  0
 14 18  2  0  0  0  0
 14 21  1  0  0  0  0
 15 17  1  0  0  0  0
 16 18  1  0  0  0  0
 16 20  1  0  0  0  0
 16 22  2  0  0  0  0
 17 30  1  0  0  0  0
 18 31  1  0  0  0  0
 19 32  1  0  0  0  0
 19 33  1  0  0  0  0
 19 34  1  0  0  0  0
 20 25  1  0  0  0  0
 20 35  1  0  0  0  0
 20 36  1  0  0  0  0
 21 24  2  0  0  0  0
 21 37  1  0  0  0  0
 22 24  1  0  0  0  0
 23 38  1  0  0  0  0
 23 39  1  0  0  0  0
 23 40  1  0  0  0  0
 25 26  2  0  0  0  0
 25 41  1  0  0  0  0
 26 28  1  0  0  0  0
 26 29  1  0  0  0  0
 27 43  1  0  0  0  0
 27 44  1  0  0  0  0
 27 45  1  0  0  0  0
 28 47  1  0  0  0  0
 28 48  1  0  0  0  0
 28 49  1  0  0  0  0
 29 50  1  0  0  0  0
 29 51  1  0  0  0  0
 29 52  1  0  0  0  0
M  END
> <PUBCHEM_COMPOUND_CID>
44258378

> <PUBCHEM_CONFORMER_RMSD>
0.8

> <PUBCHEM_CONFORMER_DIVERSEORDER>
1
17
28
10
26
2
20
34
22
29
19
9
33
12
31
32
5
25
16
3
18
30
24
27
15
23
6
11
7
35
21
8
13
14
4

> <PUBCHEM_MMFF94_PARTIAL_CHARGES>
36
1 -0.16
10 -0.14
11 0.08
12 0.08
13 0.05
14 0.03
15 0.47
16 -0.14
17 -0.14
18 -0.15
19 0.14
2 -0.36
20 0.28
21 -0.15
22 0.08
23 0.14
24 0.08
25 -0.29
26 -0.28
27 0.28
28 0.14
29 0.14
3 -0.53
30 0.15
31 0.15
37 0.15
4 -0.57
41 0.15
42 0.45
46 0.45
5 -0.53
53 0.45
6 -0.53
7 0.08
8 0.09
9 -0.14

> <PUBCHEM_EFFECTIVE_ROTOR_COUNT>
4

> <PUBCHEM_PHARMACOPHORE_FEATURES>
10
1 1 acceptor
1 2 acceptor
1 3 donor
1 4 acceptor
1 5 donor
1 6 donor
3 26 28 29 hydrophobe
6 1 7 8 13 15 17 rings
6 14 16 18 21 22 24 rings
6 7 8 9 10 11 12 rings

> <PUBCHEM_HEAVY_ATOM_COUNT>
29

> <PUBCHEM_ATOM_DEF_STEREO_COUNT>
0

> <PUBCHEM_ATOM_UDEF_STEREO_COUNT>
0

> <PUBCHEM_BOND_DEF_STEREO_COUNT>
0

> <PUBCHEM_BOND_UDEF_STEREO_COUNT>
0

> <PUBCHEM_ISOTOPIC_ATOM_COUNT>
0

> <PUBCHEM_COMPONENT_COUNT>
1

> <PUBCHEM_CACTVS_TAUTO_COUNT>
507

> <PUBCHEM_CONFORMER_ID>
02A3544A00000001

> <PUBCHEM_MMFF94_ENERGY>
94.6102

> <PUBCHEM_FEATURE_SELFOVERLAP>
50.779

> <PUBCHEM_SHAPE_FINGERPRINT>
10411042 1 17983003742613226407
10906281 52 18129671790766489981
11578080 2 17823673374306217909
12107183 9 18193835934187424642
12166972 35 18270678646068964898
12236239 1 18334290942554516746
12390115 104 17702391650521817435
12788726 201 18060426798268618833
13583140 156 17895486838060399307
13617811 41 18122332734881797317
13726171 33 17988097680403308320
13878862 14 17896298281999962764
14117953 113 17906732497087375021
14739800 52 18269824471563194432
14790565 3 18270127812144783009
14849402 71 18187927331289751804
15001296 14 18410014351161390780
15289351 153 18269548507641928200
17844677 252 18410864277823056398
17980427 23 18269250432210176494
18681886 176 18342172251030342026
20511986 3 18335408110433455903
20715895 44 17977943480484279669
21033648 144 18114456842258895623
21344244 78 18044635535382887354
22122407 14 18336557035955689817
22393880 68 18341059618039749508
23559900 14 17773321132133387358
245318 6 17751657669401079364
2838139 119 17533762816429717757
3472631 163 18413675711801142157
34797466 226 17846229885367113149
3680242 22 18265902362788360280
38570 142 17897473682138237982
474 4 17895479258044332988
5104073 3 18187367640108472986
5895379 119 18058457513140608264
6058803 2 18410001152785100830
6371009 1 18268978805160842005
67856867 119 18335696148489453058
9981440 41 17972596873349679970

> <PUBCHEM_SHAPE_MULTIPOLES>
561.59
14.04
4.48
1.21
1.72
2.52
-0.35
6.77
-0.14
-2.74
-0.79
-0.54
-0.13
-3.75

> <PUBCHEM_SHAPE_SELFOVERLAP>
1221.448

> <PUBCHEM_SHAPE_VOLUME>
308.1

> <PUBCHEM_COORDINATE_TYPE>
2
5
10

$$$$
