11765826
  -OEChem-09042011372D

119121  0     1  0  0  0  0  0999 V2000
    6.0010   -8.0000    0.0000 O   0  0  0  0  0  0  0  0  0  0  0  0
    4.2690   -6.0000    0.0000 O   0  0  0  0  0  0  0  0  0  0  0  0
    6.8671   -6.5000    0.0000 O   0  0  0  0  0  0  0  0  0  0  0  0
    6.0010   -6.0000    0.0000 O   0  0  0  0  0  0  0  0  0  0  0  0
    4.2690   -9.0000    0.0000 O   0  0  0  0  0  0  0  0  0  0  0  0
    2.5369   -8.0000    0.0000 O   0  0  0  0  0  0  0  0  0  0  0  0
    7.7331   -9.0000    0.0000 O   0  0  0  0  0  0  0  0  0  0  0  0
    9.4651   -8.0000    0.0000 O   0  0  0  0  0  0  0  0  0  0  0  0
    9.4651   -6.0000    0.0000 O   0  0  0  0  0  0  0  0  0  0  0  0
   12.0632    6.5000    0.0000 O   0  0  0  0  0  0  0  0  0  0  0  0
   11.1972    5.0000    0.0000 O   0  0  0  0  0  0  0  0  0  0  0  0
    2.5369   -5.0000    0.0000 O   0  0  0  0  0  0  0  0  0  0  0  0
    9.4651    8.0000    0.0000 O   0  0  0  0  0  0  0  0  0  0  0  0
    9.4651    6.0000    0.0000 O   0  0  0  0  0  0  0  0  0  0  0  0
   11.1972    9.0000    0.0000 O   0  0  0  0  0  0  0  0  0  0  0  0
    8.5991   -4.5000    0.0000 O   0  0  0  0  0  0  0  0  0  0  0  0
   13.7953    7.5000    0.0000 O   0  0  0  0  0  0  0  0  0  0  0  0
    5.1350   -7.5000    0.0000 C   0  0  2  0  0  0  0  0  0  0  0  0
    4.2690   -8.0000    0.0000 C   0  0  2  0  0  0  0  0  0  0  0  0
    3.4030   -7.5000    0.0000 C   0  0  1  0  0  0  0  0  0  0  0  0
    6.8671   -7.5000    0.0000 C   0  0  2  0  0  0  0  0  0  0  0  0
    7.7331   -8.0000    0.0000 C   0  0  1  0  0  0  0  0  0  0  0  0
    5.1350   -6.5000    0.0000 C   0  0  1  0  0  0  0  0  0  0  0  0
    3.4030   -6.5000    0.0000 C   0  0  1  0  0  0  0  0  0  0  0  0
    8.5991   -7.5000    0.0000 C   0  0  2  0  0  0  0  0  0  0  0  0
    8.5991   -6.5000    0.0000 C   0  0  1  0  0  0  0  0  0  0  0  0
    7.7331   -6.0000    0.0000 C   0  0  1  0  0  0  0  0  0  0  0  0
    2.5369   -6.0000    0.0000 C   0  0  0  0  0  0  0  0  0  0  0  0
   10.3312    7.5000    0.0000 C   0  0  2  0  0  0  0  0  0  0  0  0
   10.3312    6.5000    0.0000 C   0  0  2  0  0  0  0  0  0  0  0  0
    7.7331   -5.0000    0.0000 C   0  0  0  0  0  0  0  0  0  0  0  0
   11.1972    8.0000    0.0000 C   0  0  1  0  0  0  0  0  0  0  0  0
   11.1972    6.0000    0.0000 C   0  0  1  0  0  0  0  0  0  0  0  0
   12.0632    7.5000    0.0000 C   0  0  1  0  0  0  0  0  0  0  0  0
   10.3312    4.5000    0.0000 C   0  0  2  0  0  0  0  0  0  0  0  0
    6.0010   -5.0000    0.0000 C   0  0  0  0  0  0  0  0  0  0  0  0
   12.9292    8.0000    0.0000 C   0  0  0  0  0  0  0  0  0  0  0  0
    9.4651    4.0000    0.0000 C   0  0  0  0  0  0  0  0  0  0  0  0
   10.8312    3.6340    0.0000 C   0  0  0  0  0  0  0  0  0  0  0  0
    5.1350   -4.5000    0.0000 C   0  0  0  0  0  0  0  0  0  0  0  0
    9.4651    3.0000    0.0000 C   0  0  0  0  0  0  0  0  0  0  0  0
    9.8312    5.3660    0.0000 C   0  0  0  0  0  0  0  0  0  0  0  0
    5.1350   -3.5000    0.0000 C   0  0  0  0  0  0  0  0  0  0  0  0
    4.2690   -5.0000    0.0000 C   0  0  0  0  0  0  0  0  0  0  0  0
    8.5991    2.5000    0.0000 C   0  0  0  0  0  0  0  0  0  0  0  0
    6.0010   -3.0000    0.0000 C   0  0  0  0  0  0  0  0  0  0  0  0
    8.8312    5.3660    0.0000 C   0  0  0  0  0  0  0  0  0  0  0  0
    8.5991    1.5000    0.0000 C   0  0  0  0  0  0  0  0  0  0  0  0
    6.0010   -2.0000    0.0000 C   0  0  0  0  0  0  0  0  0  0  0  0
    7.7331    1.0000    0.0000 C   0  0  0  0  0  0  0  0  0  0  0  0
    7.7331    0.0000    0.0000 C   0  0  0  0  0  0  0  0  0  0  0  0
    6.8671   -1.5000    0.0000 C   0  0  0  0  0  0  0  0  0  0  0  0
    9.4651    1.0000    0.0000 C   0  0  0  0  0  0  0  0  0  0  0  0
    6.8671   -0.5000    0.0000 C   0  0  0  0  0  0  0  0  0  0  0  0
    7.7331   -2.0000    0.0000 C   0  0  0  0  0  0  0  0  0  0  0  0
    5.1350   -8.1200    0.0000 H   0  0  0  0  0  0  0  0  0  0  0  0
    3.7320   -8.3100    0.0000 H   0  0  0  0  0  0  0  0  0  0  0  0
    3.4030   -8.1200    0.0000 H   0  0  0  0  0  0  0  0  0  0  0  0
    6.8671   -8.1200    0.0000 H   0  0  0  0  0  0  0  0  0  0  0  0
    8.2700   -8.3100    0.0000 H   0  0  0  0  0  0  0  0  0  0  0  0
    5.1350   -5.8800    0.0000 H   0  0  0  0  0  0  0  0  0  0  0  0
    3.4030   -5.8800    0.0000 H   0  0  0  0  0  0  0  0  0  0  0  0
    9.1360   -7.1900    0.0000 H   0  0  0  0  0  0  0  0  0  0  0  0
    8.5991   -5.8800    0.0000 H   0  0  0  0  0  0  0  0  0  0  0  0
    7.1962   -5.6900    0.0000 H   0  0  0  0  0  0  0  0  0  0  0  0
    1.9264   -5.8923    0.0000 H   0  0  0  0  0  0  0  0  0  0  0  0
    2.3249   -6.5826    0.0000 H   0  0  0  0  0  0  0  0  0  0  0  0
   10.3312    8.1200    0.0000 H   0  0  0  0  0  0  0  0  0  0  0  0
    9.7942    6.8100    0.0000 H   0  0  0  0  0  0  0  0  0  0  0  0
   10.6603    8.3100    0.0000 H   0  0  0  0  0  0  0  0  0  0  0  0
    7.5210   -4.4174    0.0000 H   0  0  0  0  0  0  0  0  0  0  0  0
    7.1225   -5.1077    0.0000 H   0  0  0  0  0  0  0  0  0  0  0  0
   10.6603    5.6900    0.0000 H   0  0  0  0  0  0  0  0  0  0  0  0
   12.6002    7.1900    0.0000 H   0  0  0  0  0  0  0  0  0  0  0  0
    3.7320   -9.3100    0.0000 H   0  0  0  0  0  0  0  0  0  0  0  0
    2.0000   -7.6900    0.0000 H   0  0  0  0  0  0  0  0  0  0  0  0
    8.2700   -9.3100    0.0000 H   0  0  0  0  0  0  0  0  0  0  0  0
   10.0021   -7.6900    0.0000 H   0  0  0  0  0  0  0  0  0  0  0  0
   10.0021   -6.3100    0.0000 H   0  0  0  0  0  0  0  0  0  0  0  0
    6.6116   -5.1077    0.0000 H   0  0  0  0  0  0  0  0  0  0  0  0
    6.2131   -4.4174    0.0000 H   0  0  0  0  0  0  0  0  0  0  0  0
   13.3278    8.4750    0.0000 H   0  0  0  0  0  0  0  0  0  0  0  0
   12.5307    8.4750    0.0000 H   0  0  0  0  0  0  0  0  0  0  0  0
    9.2531    4.5826    0.0000 H   0  0  0  0  0  0  0  0  0  0  0  0
    8.8546    3.8923    0.0000 H   0  0  0  0  0  0  0  0  0  0  0  0
    2.0000   -4.6900    0.0000 H   0  0  0  0  0  0  0  0  0  0  0  0
    9.4651    8.6200    0.0000 H   0  0  0  0  0  0  0  0  0  0  0  0
   10.2942    3.3240    0.0000 H   0  0  0  0  0  0  0  0  0  0  0  0
   11.1412    3.0970    0.0000 H   0  0  0  0  0  0  0  0  0  0  0  0
   11.3681    3.9440    0.0000 H   0  0  0  0  0  0  0  0  0  0  0  0
    8.9282    6.3100    0.0000 H   0  0  0  0  0  0  0  0  0  0  0  0
   11.7341    9.3100    0.0000 H   0  0  0  0  0  0  0  0  0  0  0  0
    8.5991   -3.8800    0.0000 H   0  0  0  0  0  0  0  0  0  0  0  0
    9.6772    2.4174    0.0000 H   0  0  0  0  0  0  0  0  0  0  0  0
   10.0757    3.1077    0.0000 H   0  0  0  0  0  0  0  0  0  0  0  0
   10.1412    5.9030    0.0000 H   0  0  0  0  0  0  0  0  0  0  0  0
   14.3322    7.8100    0.0000 H   0  0  0  0  0  0  0  0  0  0  0  0
    4.5981   -3.1900    0.0000 H   0  0  0  0  0  0  0  0  0  0  0  0
    8.0622    2.8100    0.0000 H   0  0  0  0  0  0  0  0  0  0  0  0
    3.9590   -4.4631    0.0000 H   0  0  0  0  0  0  0  0  0  0  0  0
    3.7320   -5.3100    0.0000 H   0  0  0  0  0  0  0  0  0  0  0  0
    4.5790   -5.5369    0.0000 H   0  0  0  0  0  0  0  0  0  0  0  0
    6.2131   -3.5826    0.0000 H   0  0  0  0  0  0  0  0  0  0  0  0
    6.6116   -2.8923    0.0000 H   0  0  0  0  0  0  0  0  0  0  0  0
    8.5212    5.9030    0.0000 H   0  0  0  0  0  0  0  0  0  0  0  0
    8.5212    4.8291    0.0000 H   0  0  0  0  0  0  0  0  0  0  0  0
    5.7890   -1.4174    0.0000 H   0  0  0  0  0  0  0  0  0  0  0  0
    5.3905   -2.1077    0.0000 H   0  0  0  0  0  0  0  0  0  0  0  0
    7.5210    1.5826    0.0000 H   0  0  0  0  0  0  0  0  0  0  0  0
    7.1225    0.8923    0.0000 H   0  0  0  0  0  0  0  0  0  0  0  0
    7.9451   -0.5826    0.0000 H   0  0  0  0  0  0  0  0  0  0  0  0
    8.3437    0.1077    0.0000 H   0  0  0  0  0  0  0  0  0  0  0  0
    9.1551    0.4631    0.0000 H   0  0  0  0  0  0  0  0  0  0  0  0
   10.0021    0.6900    0.0000 H   0  0  0  0  0  0  0  0  0  0  0  0
    9.7751    1.5369    0.0000 H   0  0  0  0  0  0  0  0  0  0  0  0
    6.3301   -0.1900    0.0000 H   0  0  0  0  0  0  0  0  0  0  0  0
    7.4231   -2.5369    0.0000 H   0  0  0  0  0  0  0  0  0  0  0  0
    8.2700   -2.3100    0.0000 H   0  0  0  0  0  0  0  0  0  0  0  0
    8.0431   -1.4631    0.0000 H   0  0  0  0  0  0  0  0  0  0  0  0
 18  1  1  6  0  0  0
 21  1  1  6  0  0  0
  2 23  1  0  0  0  0
  2 24  1  0  0  0  0
  3 21  1  0  0  0  0
  3 27  1  0  0  0  0
 23  4  1  1  0  0  0
  4 36  1  0  0  0  0
 19  5  1  1  0  0  0
  5 75  1  0  0  0  0
 20  6  1  6  0  0  0
  6 76  1  0  0  0  0
 22  7  1  1  0  0  0
  7 77  1  0  0  0  0
 25  8  1  6  0  0  0
  8 78  1  0  0  0  0
 26  9  1  1  0  0  0
  9 79  1  0  0  0  0
 10 33  1  0  0  0  0
 10 34  1  0  0  0  0
 33 11  1  1  0  0  0
 35 11  1  1  0  0  0
 12 28  1  0  0  0  0
 12 86  1  0  0  0  0
 29 13  1  1  0  0  0
 13 87  1  0  0  0  0
 30 14  1  6  0  0  0
 14 91  1  0  0  0  0
 32 15  1  6  0  0  0
 15 92  1  0  0  0  0
 16 31  1  0  0  0  0
 16 93  1  0  0  0  0
 17 37  1  0  0  0  0
 17 97  1  0  0  0  0
 18 19  1  0  0  0  0
 18 23  1  0  0  0  0
 18 56  1  0  0  0  0
 19 20  1  0  0  0  0
 19 57  1  0  0  0  0
 20 24  1  0  0  0  0
 20 58  1  0  0  0  0
 21 22  1  0  0  0  0
 21 59  1  0  0  0  0
 22 25  1  0  0  0  0
 22 60  1  0  0  0  0
 23 61  1  0  0  0  0
 24 28  1  1  0  0  0
 24 62  1  0  0  0  0
 25 26  1  0  0  0  0
 25 63  1  0  0  0  0
 26 27  1  0  0  0  0
 26 64  1  0  0  0  0
 27 31  1  6  0  0  0
 27 65  1  0  0  0  0
 28 66  1  0  0  0  0
 28 67  1  0  0  0  0
 29 30  1  0  0  0  0
 29 32  1  0  0  0  0
 29 68  1  0  0  0  0
 30 33  1  0  0  0  0
 30 69  1  0  0  0  0
 31 71  1  0  0  0  0
 31 72  1  0  0  0  0
 32 34  1  0  0  0  0
 32 70  1  0  0  0  0
 33 73  1  0  0  0  0
 34 37  1  1  0  0  0
 34 74  1  0  0  0  0
 35 38  1  0  0  0  0
 35 39  1  0  0  0  0
 35 42  1  0  0  0  0
 36 40  1  0  0  0  0
 36 80  1  0  0  0  0
 36 81  1  0  0  0  0
 37 82  1  0  0  0  0
 37 83  1  0  0  0  0
 38 41  1  0  0  0  0
 38 84  1  0  0  0  0
 38 85  1  0  0  0  0
 39 88  1  0  0  0  0
 39 89  1  0  0  0  0
 39 90  1  0  0  0  0
 40 43  2  0  0  0  0
 40 44  1  0  0  0  0
 41 45  1  0  0  0  0
 41 94  1  0  0  0  0
 41 95  1  0  0  0  0
 42 47  2  0  0  0  0
 42 96  1  0  0  0  0
 43 46  1  0  0  0  0
 43 98  1  0  0  0  0
 44100  1  0  0  0  0
 44101  1  0  0  0  0
 44102  1  0  0  0  0
 45 48  2  0  0  0  0
 45 99  1  0  0  0  0
 46 49  1  0  0  0  0
 46103  1  0  0  0  0
 46104  1  0  0  0  0
 47105  1  0  0  0  0
 47106  1  0  0  0  0
 48 50  1  0  0  0  0
 48 53  1  0  0  0  0
 49 52  1  0  0  0  0
 49107  1  0  0  0  0
 49108  1  0  0  0  0
 50 51  1  0  0  0  0
 50109  1  0  0  0  0
 50110  1  0  0  0  0
 51 54  1  0  0  0  0
 51111  1  0  0  0  0
 51112  1  0  0  0  0
 52 54  2  0  0  0  0
 52 55  1  0  0  0  0
 53113  1  0  0  0  0
 53114  1  0  0  0  0
 53115  1  0  0  0  0
 54116  1  0  0  0  0
 55117  1  0  0  0  0
 55118  1  0  0  0  0
 55119  1  0  0  0  0
M  END
> <PUBCHEM_COMPOUND_CID>
11765826

> <PUBCHEM_COMPOUND_CANONICALIZED>
1

> <PUBCHEM_CACTVS_COMPLEXITY>
1260

> <PUBCHEM_CACTVS_HBOND_ACCEPTOR>
17

> <PUBCHEM_CACTVS_HBOND_DONOR>
11

> <PUBCHEM_CACTVS_ROTATABLE_BOND>
20

> <PUBCHEM_CACTVS_SUBSKEYS>
AAADcfB8PgAAAAAAAAAAAAAAAAAAAAAAAAAkSJAAAAAAAAAAAAAAGgAACAAADFSwgAMCCAAABgCAAiBCAAAAAAAgAAAICAAAAAgRFAIAIQAiUAAFgAAPIAPAYAwMAAAAAAAAAAAAAAAAAAAAAAAAAAAAAA==

> <PUBCHEM_IUPAC_OPENEYE_NAME>
(2S,3R,4S,5S,6R)-2-[(2R,3R,4S,5S,6R)-4,5-dihydroxy-6-(hydroxymethyl)-2-[(2Z,6E,10E,14S)-2,6,10,14-tetramethyl-14-[(2S,3R,4S,5S,6R)-3,4,5-trihydroxy-6-(hydroxymethyl)tetrahydropyran-2-yl]oxy-hexadeca-2,6,10,15-tetraenoxy]tetrahydropyran-3-yl]oxy-6-(hydroxymethyl)tetrahydropyran-3,4,5-triol

> <PUBCHEM_IUPAC_CAS_NAME>
(2S,3R,4S,5S,6R)-2-[[(2R,3R,4S,5S,6R)-4,5-dihydroxy-6-(hydroxymethyl)-2-[(2Z,6E,10E,14S)-2,6,10,14-tetramethyl-14-[[(2S,3R,4S,5S,6R)-3,4,5-trihydroxy-6-(hydroxymethyl)-2-oxanyl]oxy]hexadeca-2,6,10,15-tetraenoxy]-3-oxanyl]oxy]-6-(hydroxymethyl)oxane-3,4,5-triol

> <PUBCHEM_IUPAC_NAME_MARKUP>
(2<I>S</I>,3<I>R</I>,4<I>S</I>,5<I>S</I>,6<I>R</I>)-2-[(2<I>R</I>,3<I>R</I>,4<I>S</I>,5<I>S</I>,6<I>R</I>)-4,5-dihydroxy-6-(hydroxymethyl)-2-[(2<I>Z</I>,6<I>E</I>,10<I>E</I>,14<I>S</I>)-2,6,10,14-tetramethyl-14-[(2<I>S</I>,3<I>R</I>,4<I>S</I>,5<I>S</I>,6<I>R</I>)-3,4,5-trihydroxy-6-(hydroxymethyl)oxan-2-yl]oxyhexadeca-2,6,10,15-tetraenoxy]oxan-3-yl]oxy-6-(hydroxymethyl)oxane-3,4,5-triol

> <PUBCHEM_IUPAC_NAME>
(2S,3R,4S,5S,6R)-2-[(2R,3R,4S,5S,6R)-4,5-dihydroxy-6-(hydroxymethyl)-2-[(2Z,6E,10E,14S)-2,6,10,14-tetramethyl-14-[(2S,3R,4S,5S,6R)-3,4,5-trihydroxy-6-(hydroxymethyl)oxan-2-yl]oxyhexadeca-2,6,10,15-tetraenoxy]oxan-3-yl]oxy-6-(hydroxymethyl)oxane-3,4,5-triol

> <PUBCHEM_IUPAC_SYSTEMATIC_NAME>
(2R,3S,4S,5R,6S)-2-(hydroxymethyl)-6-[(2R,3R,4S,5S,6R)-6-(hydroxymethyl)-2-[(2Z,6E,10E,14S)-14-[(2S,3R,4S,5S,6R)-6-(hydroxymethyl)-3,4,5-tris(oxidanyl)oxan-2-yl]oxy-2,6,10,14-tetramethyl-hexadeca-2,6,10,15-tetraenoxy]-4,5-bis(oxidanyl)oxan-3-yl]oxy-oxane-3,4,5-triol

> <PUBCHEM_IUPAC_TRADITIONAL_NAME>
(2S,3R,4S,5S,6R)-2-[(2R,3R,4S,5S,6R)-4,5-dihydroxy-6-methylol-2-[(2Z,6E,10E,14S)-2,6,10,14-tetramethyl-14-[(2S,3R,4S,5S,6R)-3,4,5-trihydroxy-6-methylol-tetrahydropyran-2-yl]oxy-hexadeca-2,6,10,15-tetraenoxy]tetrahydropyran-3-yl]oxy-6-methylol-tetrahydropyran-3,4,5-triol

> <PUBCHEM_IUPAC_INCHI>
InChI=1S/C38H64O17/c1-6-38(5,55-36-33(49)30(46)27(43)24(17-40)52-36)15-9-14-21(3)11-7-10-20(2)12-8-13-22(4)19-50-37-34(31(47)28(44)25(18-41)53-37)54-35-32(48)29(45)26(42)23(16-39)51-35/h6,10,13-14,23-37,39-49H,1,7-9,11-12,15-19H2,2-5H3/b20-10+,21-14+,22-13-/t23-,24-,25-,26-,27-,28-,29+,30+,31+,32-,33-,34-,35+,36+,37-,38-/m1/s1

> <PUBCHEM_IUPAC_INCHIKEY>
QAUYGCMOBFCRSP-ZEBUDOFZSA-N

> <PUBCHEM_XLOGP3_AA>
0.4

> <PUBCHEM_EXACT_MASS>
792.414351

> <PUBCHEM_MOLECULAR_FORMULA>
C38H64O17

> <PUBCHEM_MOLECULAR_WEIGHT>
792.9

> <PUBCHEM_OPENEYE_CAN_SMILES>
CC(=CCCC(=CCCC(C)(C=C)OC1C(C(C(C(O1)CO)O)O)O)C)CCC=C(C)COC2C(C(C(C(O2)CO)O)O)OC3C(C(C(C(O3)CO)O)O)O

> <PUBCHEM_OPENEYE_ISO_SMILES>
C/C(=C\CC/C(=C/CC[C@@](C)(C=C)O[C@H]1[C@@H]([C@H]([C@@H]([C@H](O1)CO)O)O)O)/C)/CC/C=C(/C)\CO[C@H]2[C@@H]([C@H]([C@@H]([C@H](O2)CO)O)O)O[C@H]3[C@@H]([C@H]([C@@H]([C@H](O3)CO)O)O)O

> <PUBCHEM_CACTVS_TPSA>
278

> <PUBCHEM_MONOISOTOPIC_WEIGHT>
792.414351

> <PUBCHEM_TOTAL_CHARGE>
0

> <PUBCHEM_HEAVY_ATOM_COUNT>
55

> <PUBCHEM_ATOM_DEF_STEREO_COUNT>
16

> <PUBCHEM_ATOM_UDEF_STEREO_COUNT>
0

> <PUBCHEM_BOND_DEF_STEREO_COUNT>
3

> <PUBCHEM_BOND_UDEF_STEREO_COUNT>
0

> <PUBCHEM_ISOTOPIC_ATOM_COUNT>
0

> <PUBCHEM_COMPONENT_COUNT>
1

> <PUBCHEM_CACTVS_TAUTO_COUNT>
-1

> <PUBCHEM_COORDINATE_TYPE>
1
5
255

> <PUBCHEM_BONDANNOTATIONS>
18  1  6
21  1  6
33  11  5
35  11  5
29  13  5
30  14  6
32  15  6
24  28  5
27  31  6
34  37  5
23  4  5
19  5  5
20  6  6
22  7  5
25  8  6
26  9  5

$$$$
