131751439
  -OEChem-09042011432D

138141  0     1  0  0  0  0  0999 V2000
    6.0010   -4.5000    0.0000 O   0  0  0  0  0  0  0  0  0  0  0  0
    7.7331   -2.5000    0.0000 O   0  0  0  0  0  0  0  0  0  0  0  0
    5.1350   -3.0000    0.0000 O   0  0  0  0  0  0  0  0  0  0  0  0
    9.4651   -2.5000    0.0000 O   0  0  0  0  0  0  0  0  0  0  0  0
    7.7331   -5.5000    0.0000 O   0  0  0  0  0  0  0  0  0  0  0  0
    9.4651   -4.5000    0.0000 O   0  0  0  0  0  0  0  0  0  0  0  0
    4.2690   -5.5000    0.0000 O   0  0  0  0  0  0  0  0  0  0  0  0
    2.5369   -4.5000    0.0000 O   0  0  0  0  0  0  0  0  0  0  0  0
   18.9914    3.0000    0.0000 O   0  0  0  0  0  0  0  0  0  0  0  0
    2.5369   -2.5000    0.0000 O   0  0  0  0  0  0  0  0  0  0  0  0
   20.7235    1.0000    0.0000 O   0  0  0  0  0  0  0  0  0  0  0  0
   19.8574   -0.5000    0.0000 O   0  0  0  0  0  0  0  0  0  0  0  0
    6.0010   -1.5000    0.0000 O   0  0  0  0  0  0  0  0  0  0  0  0
   21.5895    2.5000    0.0000 O   0  0  0  0  0  0  0  0  0  0  0  0
   18.1254    4.5000    0.0000 O   0  0  0  0  0  0  0  0  0  0  0  0
   21.5895    4.5000    0.0000 O   0  0  0  0  0  0  0  0  0  0  0  0
   19.8574    5.5000    0.0000 O   0  0  0  0  0  0  0  0  0  0  0  0
   22.4555    0.0000    0.0000 O   0  0  0  0  0  0  0  0  0  0  0  0
   22.4555   -2.0000    0.0000 O   0  0  0  0  0  0  0  0  0  0  0  0
   20.7235   -3.0000    0.0000 O   0  0  0  0  0  0  0  0  0  0  0  0
    6.8671   -4.0000    0.0000 C   0  0  3  0  0  0  0  0  0  0  0  0
    7.7331   -4.5000    0.0000 C   0  0  3  0  0  0  0  0  0  0  0  0
    6.8671   -3.0000    0.0000 C   0  0  3  0  0  0  0  0  0  0  0  0
    8.5991   -4.0000    0.0000 C   0  0  3  0  0  0  0  0  0  0  0  0
    8.5991   -3.0000    0.0000 C   0  0  3  0  0  0  0  0  0  0  0  0
    5.1350   -4.0000    0.0000 C   0  0  3  0  0  0  0  0  0  0  0  0
    4.2690   -4.5000    0.0000 C   0  0  3  0  0  0  0  0  0  0  0  0
    3.4030   -4.0000    0.0000 C   0  0  3  0  0  0  0  0  0  0  0  0
    3.4030   -3.0000    0.0000 C   0  0  3  0  0  0  0  0  0  0  0  0
    4.2690   -2.5000    0.0000 C   0  0  3  0  0  0  0  0  0  0  0  0
    6.0010   -2.5000    0.0000 C   0  0  0  0  0  0  0  0  0  0  0  0
    9.4651   -1.5000    0.0000 C   0  0  3  0  0  0  0  0  0  0  0  0
   19.8574    2.5000    0.0000 C   0  0  3  0  0  0  0  0  0  0  0  0
   20.7235    3.0000    0.0000 C   0  0  3  0  0  0  0  0  0  0  0  0
   20.7235    4.0000    0.0000 C   0  0  3  0  0  0  0  0  0  0  0  0
    4.2690   -1.5000    0.0000 C   0  0  0  0  0  0  0  0  0  0  0  0
   19.8574    4.5000    0.0000 C   0  0  3  0  0  0  0  0  0  0  0  0
   21.5895   -0.5000    0.0000 C   0  0  3  0  0  0  0  0  0  0  0  0
   20.7235    0.0000    0.0000 C   0  0  3  0  0  0  0  0  0  0  0  0
   21.5895   -1.5000    0.0000 C   0  0  3  0  0  0  0  0  0  0  0  0
    9.4651   -0.5000    0.0000 C   0  0  0  0  0  0  0  0  0  0  0  0
   20.7235   -2.0000    0.0000 C   0  0  3  0  0  0  0  0  0  0  0  0
   18.9914    4.0000    0.0000 C   0  0  3  0  0  0  0  0  0  0  0  0
   19.8574    1.5000    0.0000 C   0  0  0  0  0  0  0  0  0  0  0  0
   19.8574   -1.5000    0.0000 C   0  0  3  0  0  0  0  0  0  0  0  0
    8.4651   -1.5000    0.0000 C   0  0  0  0  0  0  0  0  0  0  0  0
   10.4651   -1.5000    0.0000 C   0  0  0  0  0  0  0  0  0  0  0  0
   10.3312   -0.0000    0.0000 C   0  0  0  0  0  0  0  0  0  0  0  0
   18.9914   -2.0000    0.0000 C   0  0  0  0  0  0  0  0  0  0  0  0
   10.3312    1.0000    0.0000 C   0  0  0  0  0  0  0  0  0  0  0  0
   17.2594    4.0000    0.0000 C   0  0  0  0  0  0  0  0  0  0  0  0
   10.9651   -2.3660    0.0000 C   0  0  0  0  0  0  0  0  0  0  0  0
   11.1972    1.5000    0.0000 C   0  0  0  0  0  0  0  0  0  0  0  0
   16.3933    4.5000    0.0000 C   0  0  0  0  0  0  0  0  0  0  0  0
   11.1972    2.5000    0.0000 C   0  0  0  0  0  0  0  0  0  0  0  0
   12.0632    1.0000    0.0000 C   0  0  0  0  0  0  0  0  0  0  0  0
   12.0632    3.0000    0.0000 C   0  0  0  0  0  0  0  0  0  0  0  0
   15.5273    4.0000    0.0000 C   0  0  0  0  0  0  0  0  0  0  0  0
   16.3933    5.5000    0.0000 C   0  0  0  0  0  0  0  0  0  0  0  0
   14.6613    4.5000    0.0000 C   0  0  0  0  0  0  0  0  0  0  0  0
   13.7953    4.0000    0.0000 C   0  0  0  0  0  0  0  0  0  0  0  0
   12.0632    4.0000    0.0000 C   0  0  0  0  0  0  0  0  0  0  0  0
   12.9292    4.5000    0.0000 C   0  0  0  0  0  0  0  0  0  0  0  0
   12.9292    5.5000    0.0000 C   0  0  0  0  0  0  0  0  0  0  0  0
    6.3301   -3.6900    0.0000 H   0  0  0  0  0  0  0  0  0  0  0  0
    7.1962   -4.8100    0.0000 H   0  0  0  0  0  0  0  0  0  0  0  0
    6.8671   -2.3800    0.0000 H   0  0  0  0  0  0  0  0  0  0  0  0
    8.5991   -4.6200    0.0000 H   0  0  0  0  0  0  0  0  0  0  0  0
    8.5991   -2.3800    0.0000 H   0  0  0  0  0  0  0  0  0  0  0  0
    5.1350   -4.6200    0.0000 H   0  0  0  0  0  0  0  0  0  0  0  0
    3.7320   -4.8100    0.0000 H   0  0  0  0  0  0  0  0  0  0  0  0
    2.8660   -3.6900    0.0000 H   0  0  0  0  0  0  0  0  0  0  0  0
    3.4030   -2.3800    0.0000 H   0  0  0  0  0  0  0  0  0  0  0  0
    4.8059   -2.1900    0.0000 H   0  0  0  0  0  0  0  0  0  0  0  0
    5.3905   -2.3923    0.0000 H   0  0  0  0  0  0  0  0  0  0  0  0
    5.7890   -3.0826    0.0000 H   0  0  0  0  0  0  0  0  0  0  0  0
   19.3205    2.1900    0.0000 H   0  0  0  0  0  0  0  0  0  0  0  0
   21.2604    3.3100    0.0000 H   0  0  0  0  0  0  0  0  0  0  0  0
   20.7235    4.6200    0.0000 H   0  0  0  0  0  0  0  0  0  0  0  0
    8.2700   -5.8100    0.0000 H   0  0  0  0  0  0  0  0  0  0  0  0
    4.8890   -1.5000    0.0000 H   0  0  0  0  0  0  0  0  0  0  0  0
    4.2690   -0.8800    0.0000 H   0  0  0  0  0  0  0  0  0  0  0  0
    3.6490   -1.5000    0.0000 H   0  0  0  0  0  0  0  0  0  0  0  0
   20.3944    4.8100    0.0000 H   0  0  0  0  0  0  0  0  0  0  0  0
   21.5895    0.1200    0.0000 H   0  0  0  0  0  0  0  0  0  0  0  0
   20.1865    0.3100    0.0000 H   0  0  0  0  0  0  0  0  0  0  0  0
   10.0021   -4.1900    0.0000 H   0  0  0  0  0  0  0  0  0  0  0  0
   21.5895   -2.1200    0.0000 H   0  0  0  0  0  0  0  0  0  0  0  0
   20.1865   -2.3100    0.0000 H   0  0  0  0  0  0  0  0  0  0  0  0
    9.2531    0.0826    0.0000 H   0  0  0  0  0  0  0  0  0  0  0  0
    8.8546   -0.6077    0.0000 H   0  0  0  0  0  0  0  0  0  0  0  0
   18.9914    4.6200    0.0000 H   0  0  0  0  0  0  0  0  0  0  0  0
   19.2469    1.6077    0.0000 H   0  0  0  0  0  0  0  0  0  0  0  0
   19.6454    0.9174    0.0000 H   0  0  0  0  0  0  0  0  0  0  0  0
   19.3205   -1.1900    0.0000 H   0  0  0  0  0  0  0  0  0  0  0  0
    3.7320   -5.8100    0.0000 H   0  0  0  0  0  0  0  0  0  0  0  0
    2.0000   -4.1900    0.0000 H   0  0  0  0  0  0  0  0  0  0  0  0
    8.4651   -0.8800    0.0000 H   0  0  0  0  0  0  0  0  0  0  0  0
    7.8451   -1.5000    0.0000 H   0  0  0  0  0  0  0  0  0  0  0  0
    8.4651   -2.1200    0.0000 H   0  0  0  0  0  0  0  0  0  0  0  0
    2.5369   -1.8800    0.0000 H   0  0  0  0  0  0  0  0  0  0  0  0
   10.7751   -0.9631    0.0000 H   0  0  0  0  0  0  0  0  0  0  0  0
   10.5432   -0.5826    0.0000 H   0  0  0  0  0  0  0  0  0  0  0  0
   10.9417    0.1077    0.0000 H   0  0  0  0  0  0  0  0  0  0  0  0
    6.5380   -1.1900    0.0000 H   0  0  0  0  0  0  0  0  0  0  0  0
   18.6814   -1.4631    0.0000 H   0  0  0  0  0  0  0  0  0  0  0  0
   18.4545   -2.3100    0.0000 H   0  0  0  0  0  0  0  0  0  0  0  0
   19.3014   -2.5369    0.0000 H   0  0  0  0  0  0  0  0  0  0  0  0
   22.1264    2.8100    0.0000 H   0  0  0  0  0  0  0  0  0  0  0  0
   22.1264    4.1900    0.0000 H   0  0  0  0  0  0  0  0  0  0  0  0
   20.3944    5.8100    0.0000 H   0  0  0  0  0  0  0  0  0  0  0  0
   22.9925   -0.3100    0.0000 H   0  0  0  0  0  0  0  0  0  0  0  0
   22.4555   -2.6200    0.0000 H   0  0  0  0  0  0  0  0  0  0  0  0
   20.1865   -3.3100    0.0000 H   0  0  0  0  0  0  0  0  0  0  0  0
    9.7942    1.3100    0.0000 H   0  0  0  0  0  0  0  0  0  0  0  0
   16.8608    3.5250    0.0000 H   0  0  0  0  0  0  0  0  0  0  0  0
   17.6579    3.5250    0.0000 H   0  0  0  0  0  0  0  0  0  0  0  0
   10.6551   -2.9030    0.0000 H   0  0  0  0  0  0  0  0  0  0  0  0
   11.5851   -2.3660    0.0000 H   0  0  0  0  0  0  0  0  0  0  0  0
   10.9851    3.0826    0.0000 H   0  0  0  0  0  0  0  0  0  0  0  0
   10.5866    2.3923    0.0000 H   0  0  0  0  0  0  0  0  0  0  0  0
   11.7532    0.4631    0.0000 H   0  0  0  0  0  0  0  0  0  0  0  0
   12.6002    0.6900    0.0000 H   0  0  0  0  0  0  0  0  0  0  0  0
   12.3732    1.5369    0.0000 H   0  0  0  0  0  0  0  0  0  0  0  0
   15.5273    3.3800    0.0000 H   0  0  0  0  0  0  0  0  0  0  0  0
   12.2753    2.4174    0.0000 H   0  0  0  0  0  0  0  0  0  0  0  0
   12.6738    3.1077    0.0000 H   0  0  0  0  0  0  0  0  0  0  0  0
   17.0133    5.5000    0.0000 H   0  0  0  0  0  0  0  0  0  0  0  0
   16.3933    6.1200    0.0000 H   0  0  0  0  0  0  0  0  0  0  0  0
   15.7733    5.5000    0.0000 H   0  0  0  0  0  0  0  0  0  0  0  0
   15.0598    4.9750    0.0000 H   0  0  0  0  0  0  0  0  0  0  0  0
   14.2628    4.9750    0.0000 H   0  0  0  0  0  0  0  0  0  0  0  0
   13.3967    3.5250    0.0000 H   0  0  0  0  0  0  0  0  0  0  0  0
   14.1938    3.5250    0.0000 H   0  0  0  0  0  0  0  0  0  0  0  0
   11.5263    4.3100    0.0000 H   0  0  0  0  0  0  0  0  0  0  0  0
   13.5492    5.5000    0.0000 H   0  0  0  0  0  0  0  0  0  0  0  0
   12.9292    6.1200    0.0000 H   0  0  0  0  0  0  0  0  0  0  0  0
   12.3092    5.5000    0.0000 H   0  0  0  0  0  0  0  0  0  0  0  0
  1 21  1  0  0  0  0
  1 26  1  0  0  0  0
  2 23  1  0  0  0  0
  2 25  1  0  0  0  0
  3 26  1  0  0  0  0
  3 30  1  0  0  0  0
  4 25  1  0  0  0  0
  4 32  1  0  0  0  0
  5 22  1  0  0  0  0
  5 80  1  0  0  0  0
  6 24  1  0  0  0  0
  6 87  1  0  0  0  0
  7 27  1  0  0  0  0
  7 96  1  0  0  0  0
  8 28  1  0  0  0  0
  8 97  1  0  0  0  0
  9 33  1  0  0  0  0
  9 43  1  0  0  0  0
 10 29  1  0  0  0  0
 10101  1  0  0  0  0
 11 39  1  0  0  0  0
 11 44  1  0  0  0  0
 12 39  1  0  0  0  0
 12 45  1  0  0  0  0
 13 31  1  0  0  0  0
 13105  1  0  0  0  0
 14 34  1  0  0  0  0
 14109  1  0  0  0  0
 15 43  1  0  0  0  0
 15 51  1  0  0  0  0
 16 35  1  0  0  0  0
 16110  1  0  0  0  0
 17 37  1  0  0  0  0
 17111  1  0  0  0  0
 18 38  1  0  0  0  0
 18112  1  0  0  0  0
 19 40  1  0  0  0  0
 19113  1  0  0  0  0
 20 42  1  0  0  0  0
 20114  1  0  0  0  0
 21 22  1  0  0  0  0
 21 23  1  0  0  0  0
 21 65  1  0  0  0  0
 22 24  1  0  0  0  0
 22 66  1  0  0  0  0
 23 31  1  0  0  0  0
 23 67  1  0  0  0  0
 24 25  1  0  0  0  0
 24 68  1  0  0  0  0
 25 69  1  0  0  0  0
 26 27  1  0  0  0  0
 26 70  1  0  0  0  0
 27 28  1  0  0  0  0
 27 71  1  0  0  0  0
 28 29  1  0  0  0  0
 28 72  1  0  0  0  0
 29 30  1  0  0  0  0
 29 73  1  0  0  0  0
 30 36  1  0  0  0  0
 30 74  1  0  0  0  0
 31 75  1  0  0  0  0
 31 76  1  0  0  0  0
 32 41  1  0  0  0  0
 32 46  1  0  0  0  0
 32 47  1  0  0  0  0
 33 34  1  0  0  0  0
 33 44  1  0  0  0  0
 33 77  1  0  0  0  0
 34 35  1  0  0  0  0
 34 78  1  0  0  0  0
 35 37  1  0  0  0  0
 35 79  1  0  0  0  0
 36 81  1  0  0  0  0
 36 82  1  0  0  0  0
 36 83  1  0  0  0  0
 37 43  1  0  0  0  0
 37 84  1  0  0  0  0
 38 39  1  0  0  0  0
 38 40  1  0  0  0  0
 38 85  1  0  0  0  0
 39 86  1  0  0  0  0
 40 42  1  0  0  0  0
 40 88  1  0  0  0  0
 41 48  1  0  0  0  0
 41 90  1  0  0  0  0
 41 91  1  0  0  0  0
 42 45  1  0  0  0  0
 42 89  1  0  0  0  0
 43 92  1  0  0  0  0
 44 93  1  0  0  0  0
 44 94  1  0  0  0  0
 45 49  1  0  0  0  0
 45 95  1  0  0  0  0
 46 98  1  0  0  0  0
 46 99  1  0  0  0  0
 46100  1  0  0  0  0
 47 52  2  0  0  0  0
 47102  1  0  0  0  0
 48 50  1  0  0  0  0
 48103  1  0  0  0  0
 48104  1  0  0  0  0
 49106  1  0  0  0  0
 49107  1  0  0  0  0
 49108  1  0  0  0  0
 50 53  2  0  0  0  0
 50115  1  0  0  0  0
 51 54  1  0  0  0  0
 51116  1  0  0  0  0
 51117  1  0  0  0  0
 52118  1  0  0  0  0
 52119  1  0  0  0  0
 53 55  1  0  0  0  0
 53 56  1  0  0  0  0
 54 58  2  0  0  0  0
 54 59  1  0  0  0  0
 55 57  1  0  0  0  0
 55120  1  0  0  0  0
 55121  1  0  0  0  0
 56122  1  0  0  0  0
 56123  1  0  0  0  0
 56124  1  0  0  0  0
 57 62  1  0  0  0  0
 57126  1  0  0  0  0
 57127  1  0  0  0  0
 58 60  1  0  0  0  0
 58125  1  0  0  0  0
 59128  1  0  0  0  0
 59129  1  0  0  0  0
 59130  1  0  0  0  0
 60 61  1  0  0  0  0
 60131  1  0  0  0  0
 60132  1  0  0  0  0
 61 63  1  0  0  0  0
 61133  1  0  0  0  0
 61134  1  0  0  0  0
 62 63  2  0  0  0  0
 62135  1  0  0  0  0
 63 64  1  0  0  0  0
 64136  1  0  0  0  0
 64137  1  0  0  0  0
 64138  1  0  0  0  0
M  END
> <PUBCHEM_COMPOUND_CID>
131751439

> <PUBCHEM_COMPOUND_CANONICALIZED>
1

> <PUBCHEM_CACTVS_COMPLEXITY>
1530

> <PUBCHEM_CACTVS_HBOND_ACCEPTOR>
20

> <PUBCHEM_CACTVS_HBOND_DONOR>
12

> <PUBCHEM_CACTVS_ROTATABLE_BOND>
21

> <PUBCHEM_CACTVS_SUBSKEYS>
AAADcfB8PgAAAAAAAAAAAAAAAAAAAAAAAAAkSJEgAAAAAAAAAAAAGgAACAAADFSwgAMCCAAABgCAAiBCAAAAAAAgAAAICAAAAAgRFAIAIQAiUAAFgAAPIAPAYAwMAAAAAAAAAAAAAAAAAAAAAAAAAAAAAA==

> <PUBCHEM_IUPAC_OPENEYE_NAME>
2-[[6-[(2E,6Z,10E)-14-[3,4-dihydroxy-6-(hydroxymethyl)-5-(3,4,5-trihydroxy-6-methyl-tetrahydropyran-2-yl)oxy-tetrahydropyran-2-yl]oxy-2,6,10,14-tetramethyl-hexadeca-2,6,10,15-tetraenoxy]-3,4,5-trihydroxy-tetrahydropyran-2-yl]methoxy]-6-methyl-tetrahydropyran-3,4,5-triol

> <PUBCHEM_IUPAC_CAS_NAME>
2-[[6-[(2E,6Z,10E)-14-[[3,4-dihydroxy-6-(hydroxymethyl)-5-[(3,4,5-trihydroxy-6-methyl-2-oxanyl)oxy]-2-oxanyl]oxy]-2,6,10,14-tetramethylhexadeca-2,6,10,15-tetraenoxy]-3,4,5-trihydroxy-2-oxanyl]methoxy]-6-methyloxane-3,4,5-triol

> <PUBCHEM_IUPAC_NAME_MARKUP>
2-[[6-[(2<I>E</I>,6<I>Z</I>,10<I>E</I>)-14-[3,4-dihydroxy-6-(hydroxymethyl)-5-(3,4,5-trihydroxy-6-methyloxan-2-yl)oxyoxan-2-yl]oxy-2,6,10,14-tetramethylhexadeca-2,6,10,15-tetraenoxy]-3,4,5-trihydroxyoxan-2-yl]methoxy]-6-methyloxane-3,4,5-triol

> <PUBCHEM_IUPAC_NAME>
2-[[6-[(2E,6Z,10E)-14-[3,4-dihydroxy-6-(hydroxymethyl)-5-(3,4,5-trihydroxy-6-methyloxan-2-yl)oxyoxan-2-yl]oxy-2,6,10,14-tetramethylhexadeca-2,6,10,15-tetraenoxy]-3,4,5-trihydroxyoxan-2-yl]methoxy]-6-methyloxane-3,4,5-triol

> <PUBCHEM_IUPAC_SYSTEMATIC_NAME>
2-[[6-[(2E,6Z,10E)-14-[6-(hydroxymethyl)-5-[6-methyl-3,4,5-tris(oxidanyl)oxan-2-yl]oxy-3,4-bis(oxidanyl)oxan-2-yl]oxy-2,6,10,14-tetramethyl-hexadeca-2,6,10,15-tetraenoxy]-3,4,5-tris(oxidanyl)oxan-2-yl]methoxy]-6-methyl-oxane-3,4,5-triol

> <PUBCHEM_IUPAC_TRADITIONAL_NAME>
2-[[6-[(2E,6Z,10E)-14-[3,4-dihydroxy-6-methylol-5-(3,4,5-trihydroxy-6-methyl-tetrahydropyran-2-yl)oxy-tetrahydropyran-2-yl]oxy-2,6,10,14-tetramethyl-hexadeca-2,6,10,15-tetraenoxy]-3,4,5-trihydroxy-tetrahydropyran-2-yl]methoxy]-6-methyl-tetrahydropyran-3,4,5-triol

> <PUBCHEM_IUPAC_INCHI>
InChI=1S/C44H74O20/c1-8-44(7,64-43-38(56)34(52)39(26(18-45)61-43)63-42-37(55)32(50)29(47)25(6)60-42)17-11-16-22(3)13-9-12-21(2)14-10-15-23(4)19-57-41-36(54)33(51)30(48)27(62-41)20-58-40-35(53)31(49)28(46)24(5)59-40/h8,12,15-16,24-43,45-56H,1,9-11,13-14,17-20H2,2-7H3/b21-12-,22-16+,23-15+

> <PUBCHEM_IUPAC_INCHIKEY>
VWZHZYXUGKPPIX-PRMGPUFCSA-N

> <PUBCHEM_XLOGP3_AA>
-1.3

> <PUBCHEM_EXACT_MASS>
922.477345

> <PUBCHEM_MOLECULAR_FORMULA>
C44H74O20

> <PUBCHEM_MOLECULAR_WEIGHT>
923

> <PUBCHEM_OPENEYE_CAN_SMILES>
CC1C(C(C(C(O1)OCC2C(C(C(C(O2)OCC(=CCCC(=CCCC(=CCCC(C)(C=C)OC3C(C(C(C(O3)CO)OC4C(C(C(C(O4)C)O)O)O)O)O)C)C)C)O)O)O)O)O)O

> <PUBCHEM_OPENEYE_ISO_SMILES>
CC1C(C(C(C(O1)OCC2C(C(C(C(O2)OC/C(=C/CC/C(=C\CC/C(=C/CCC(C)(C=C)OC3C(C(C(C(O3)CO)OC4C(C(C(C(O4)C)O)O)O)O)O)/C)/C)/C)O)O)O)O)O)O

> <PUBCHEM_CACTVS_TPSA>
317

> <PUBCHEM_MONOISOTOPIC_WEIGHT>
922.477345

> <PUBCHEM_TOTAL_CHARGE>
0

> <PUBCHEM_HEAVY_ATOM_COUNT>
64

> <PUBCHEM_ATOM_DEF_STEREO_COUNT>
0

> <PUBCHEM_ATOM_UDEF_STEREO_COUNT>
21

> <PUBCHEM_BOND_DEF_STEREO_COUNT>
3

> <PUBCHEM_BOND_UDEF_STEREO_COUNT>
0

> <PUBCHEM_ISOTOPIC_ATOM_COUNT>
0

> <PUBCHEM_COMPONENT_COUNT>
1

> <PUBCHEM_CACTVS_TAUTO_COUNT>
-1

> <PUBCHEM_COORDINATE_TYPE>
1
5
255

> <PUBCHEM_BONDANNOTATIONS>
21  1  3
26  1  3
29  10  3
39  11  3
34  14  3
43  15  3
35  16  3
37  17  3
38  18  3
40  19  3
42  20  3
23  31  3
30  36  3
32  46  3
33  44  3
25  4  3
45  49  3
22  5  3
24  6  3
27  7  3
28  8  3

$$$$
