348288723
  -OEChem-09042011532D

 65 68  0     1  0  0  0  0  0999 V2000
    2.1434    1.2375    0.0000 O   0  0  0  0  0  0  0  0  0  0  0  0
    0.0000    0.8250    0.0000 O   0  0  0  0  0  0  0  0  0  0  0  0
    2.8579    0.0000    0.0000 O   0  0  0  0  0  0  0  0  0  0  0  0
    0.7145    2.0625    0.0000 O   0  0  0  0  0  0  0  0  0  0  0  0
   -1.4289    0.0000    0.0000 O   0  0  0  0  0  0  0  0  0  0  0  0
    2.1434   -0.4125    0.0000 O   0  0  0  0  0  0  0  0  0  0  0  0
    0.7145   -1.2375    0.0000 O   0  0  0  0  0  0  0  0  0  0  0  0
   -0.7145    1.2375    0.0000 O   0  0  0  0  0  0  0  0  0  0  0  0
    7.8592   10.3125    0.0000 O   0  0  0  0  0  0  0  0  0  0  0  0
    3.5724    2.0625    0.0000 O   0  0  0  0  0  0  0  0  0  0  0  0
    6.4302   10.3125    0.0000 O   0  0  0  0  0  0  0  0  0  0  0  0
    5.0013    1.2375    0.0000 O   0  0  0  0  0  0  0  0  0  0  0  0
    5.0013   -0.4125    0.0000 O   0  0  0  0  0  0  0  0  0  0  0  0
   -2.8579    0.8250    0.0000 O   0  0  0  0  0  0  0  0  0  0  0  0
    6.4302   11.9625    0.0000 O   0  0  0  0  0  0  0  0  0  0  0  0
    7.8592   12.7875    0.0000 O   0  0  0  0  0  0  0  0  0  0  0  0
   -2.8579    2.4750    0.0000 O   0  0  0  0  0  0  0  0  0  0  0  0
    9.2881   11.9625    0.0000 O   0  0  0  0  0  0  0  0  0  0  0  0
   -1.4289    3.3000    0.0000 O   0  0  0  0  0  0  0  0  0  0  0  0
    2.8579   -1.6500    0.0000 O   0  0  0  0  0  0  0  0  0  0  0  0
   10.0026   10.7250    0.0000 O   0  0  0  0  0  0  0  0  0  0  0  0
    1.4289    0.8250    0.0000 C   0  0  3  0  0  0  0  0  0  0  0  0
    1.4289    0.0000    0.0000 C   0  0  3  0  0  0  0  0  0  0  0  0
    0.7145    1.2375    0.0000 C   0  0  3  0  0  0  0  0  0  0  0  0
    0.7145   -0.4125    0.0000 C   0  0  3  0  0  0  0  0  0  0  0  0
    2.8579    0.8250    0.0000 C   0  0  3  0  0  0  0  0  0  0  0  0
    0.0000    0.0000    0.0000 C   0  0  3  0  0  0  0  0  0  0  0  0
    3.5724    1.2375    0.0000 C   0  0  3  0  0  0  0  0  0  0  0  0
    4.2868    0.8250    0.0000 C   0  0  3  0  0  0  0  0  0  0  0  0
    4.2868    0.0000    0.0000 C   0  0  3  0  0  0  0  0  0  0  0  0
    3.5724   -0.4125    0.0000 C   0  0  3  0  0  0  0  0  0  0  0  0
   -0.7145   -0.4125    0.0000 C   0  0  0  0  0  0  0  0  0  0  0  0
   -1.4289    0.8250    0.0000 C   0  0  3  0  0  0  0  0  0  0  0  0
    7.1447   10.7250    0.0000 C   0  0  3  0  0  0  0  0  0  0  0  0
   -2.1434    1.2375    0.0000 C   0  0  3  0  0  0  0  0  0  0  0  0
    7.1447   11.5500    0.0000 C   0  0  3  0  0  0  0  0  0  0  0  0
    7.8592   11.9625    0.0000 C   0  0  3  0  0  0  0  0  0  0  0  0
   -2.1434    2.0625    0.0000 C   0  0  3  0  0  0  0  0  0  0  0  0
    8.5737   11.5500    0.0000 C   0  0  3  0  0  0  0  0  0  0  0  0
    8.5737   10.7250    0.0000 C   0  0  3  0  0  0  0  0  0  0  0  0
   -1.4289    2.4750    0.0000 C   0  0  3  0  0  0  0  0  0  0  0  0
   -0.7145    2.0625    0.0000 C   0  0  3  0  0  0  0  0  0  0  0  0
    3.5724   -1.2375    0.0000 C   0  0  0  0  0  0  0  0  0  0  0  0
    6.4302    9.4875    0.0000 C   0  0  3  0  0  0  0  0  0  0  0  0
    1.4289    2.4750    0.0000 C   0  0  0  0  0  0  0  0  0  0  0  0
    1.4289    3.3000    0.0000 C   0  0  0  0  0  0  0  0  0  0  0  0
    9.2881   10.3125    0.0000 C   0  0  0  0  0  0  0  0  0  0  0  0
    6.4302    8.6625    0.0000 C   0  0  0  0  0  0  0  0  0  0  0  0
    5.6052    9.4875    0.0000 C   0  0  0  0  0  0  0  0  0  0  0  0
    0.0000    2.4750    0.0000 C   0  0  0  0  0  0  0  0  0  0  0  0
    7.2552    9.4875    0.0000 C   0  0  0  0  0  0  0  0  0  0  0  0
    2.1434    3.7125    0.0000 C   0  0  0  0  0  0  0  0  0  0  0  0
    5.7158    8.2500    0.0000 C   0  0  0  0  0  0  0  0  0  0  0  0
    0.7145    3.7125    0.0000 C   0  0  0  0  0  0  0  0  0  0  0  0
    5.1927   10.2020    0.0000 C   0  0  0  0  0  0  0  0  0  0  0  0
    5.7158    7.4250    0.0000 C   0  0  0  0  0  0  0  0  0  0  0  0
    2.1434    4.5375    0.0000 C   0  0  0  0  0  0  0  0  0  0  0  0
    5.0013    7.0125    0.0000 C   0  0  0  0  0  0  0  0  0  0  0  0
    2.8579    4.9500    0.0000 C   0  0  0  0  0  0  0  0  0  0  0  0
    2.8579    5.7750    0.0000 C   0  0  0  0  0  0  0  0  0  0  0  0
    5.0013    6.1875    0.0000 C   0  0  0  0  0  0  0  0  0  0  0  0
    4.2868    7.4250    0.0000 C   0  0  0  0  0  0  0  0  0  0  0  0
    3.5724    6.1875    0.0000 C   0  0  0  0  0  0  0  0  0  0  0  0
    4.2868    5.7750    0.0000 C   0  0  0  0  0  0  0  0  0  0  0  0
    2.1434    6.1875    0.0000 C   0  0  0  0  0  0  0  0  0  0  0  0
  1 22  1  0  0  0  0
  1 26  1  0  0  0  0
  2 24  1  0  0  0  0
  2 27  1  0  0  0  0
  3 26  1  0  0  0  0
  3 31  1  0  0  0  0
  4 24  1  0  0  0  0
  4 45  1  0  0  0  0
  5 32  1  0  0  0  0
  5 33  1  0  0  0  0
  6 23  1  0  0  0  0
  7 25  1  0  0  0  0
  8 33  1  0  0  0  0
  8 42  1  0  0  0  0
  9 34  1  0  0  0  0
  9 40  1  0  0  0  0
 10 28  1  0  0  0  0
 11 34  1  0  0  0  0
 11 44  1  0  0  0  0
 12 29  1  0  0  0  0
 13 30  1  0  0  0  0
 14 35  1  0  0  0  0
 15 36  1  0  0  0  0
 16 37  1  0  0  0  0
 17 38  1  0  0  0  0
 18 39  1  0  0  0  0
 19 41  1  0  0  0  0
 20 43  1  0  0  0  0
 21 47  1  0  0  0  0
 22 23  1  0  0  0  0
 22 24  1  0  0  0  0
 23 25  1  0  0  0  0
 25 27  1  0  0  0  0
 26 28  1  0  0  0  0
 27 32  1  0  0  0  0
 28 29  1  0  0  0  0
 29 30  1  0  0  0  0
 30 31  1  0  0  0  0
 31 43  1  0  0  0  0
 33 35  1  0  0  0  0
 34 36  1  0  0  0  0
 35 38  1  0  0  0  0
 36 37  1  0  0  0  0
 37 39  1  0  0  0  0
 38 41  1  0  0  0  0
 39 40  1  0  0  0  0
 40 47  1  0  0  0  0
 41 42  1  0  0  0  0
 42 50  1  0  0  0  0
 44 48  1  0  0  0  0
 44 49  1  0  0  0  0
 44 51  1  0  0  0  0
 45 46  1  0  0  0  0
 46 52  2  0  0  0  0
 46 54  1  0  0  0  0
 48 53  1  0  0  0  0
 49 55  2  0  0  0  0
 52 57  1  0  0  0  0
 53 56  1  0  0  0  0
 56 58  2  0  0  0  0
 57 59  1  0  0  0  0
 58 61  1  0  0  0  0
 58 62  1  0  0  0  0
 59 60  1  0  0  0  0
 60 63  2  0  0  0  0
 60 65  1  0  0  0  0
 61 64  1  0  0  0  0
 63 64  1  0  0  0  0
M  END
> <PUBCHEM_COMPOUND_ID_TYPE>
0

> <PUBCHEM_TOTAL_CHARGE>
0

> <PUBCHEM_SUBSTANCE_ID>
348288723

> <PUBCHEM_SUBSTANCE_VERSION>
1

> <PUBCHEM_EXT_DATASOURCE_NAME>
811

> <PUBCHEM_EXT_DATASOURCE_REGID>
HMDB0033501

> <PUBCHEM_SUBSTANCE_SYNONYM>
Lyciumoside VII

> <PUBCHEM_XREF_EXT_ID>
HMDB0033501

> <PUBCHEM_EXT_DATASOURCE_URL>
http://www.hmdb.ca

> <PUBCHEM_EXT_SUBSTANCE_URL>
http://www.hmdb.ca/metabolites/HMDB0033501

> <PUBCHEM_CID_ASSOCIATIONS>
131751440  1

> <PUBCHEM_COORDINATE_TYPE>
1
3

$$$$
