131751390
  -OEChem-09042011552D

 99100  0     1  0  0  0  0  0999 V2000
    4.2690   -4.0000    0.0000 O   0  0  0  0  0  0  0  0  0  0  0  0
    6.0010   -4.0000    0.0000 O   0  0  0  0  0  0  0  0  0  0  0  0
   14.6613    6.0000    0.0000 O   0  0  0  0  0  0  0  0  0  0  0  0
    4.2690   -7.0000    0.0000 O   0  0  0  0  0  0  0  0  0  0  0  0
    6.0010   -6.0000    0.0000 O   0  0  0  0  0  0  0  0  0  0  0  0
    2.5369   -6.0000    0.0000 O   0  0  0  0  0  0  0  0  0  0  0  0
   12.9292    6.0000    0.0000 O   0  0  0  0  0  0  0  0  0  0  0  0
   14.6613    3.0000    0.0000 O   0  0  0  0  0  0  0  0  0  0  0  0
   16.3933    4.0000    0.0000 O   0  0  0  0  0  0  0  0  0  0  0  0
   12.9292    4.0000    0.0000 O   0  0  0  0  0  0  0  0  0  0  0  0
    2.5369   -3.0000    0.0000 O   0  0  0  0  0  0  0  0  0  0  0  0
   16.3933    7.0000    0.0000 O   0  0  0  0  0  0  0  0  0  0  0  0
    8.5991    4.5000    0.0000 O   0  0  0  0  0  0  0  0  0  0  0  0
    4.2690   -6.0000    0.0000 C   0  0  3  0  0  0  0  0  0  0  0  0
    5.1350   -5.5000    0.0000 C   0  0  3  0  0  0  0  0  0  0  0  0
    3.4030   -5.5000    0.0000 C   0  0  3  0  0  0  0  0  0  0  0  0
    5.1350   -4.5000    0.0000 C   0  0  3  0  0  0  0  0  0  0  0  0
    3.4030   -4.5000    0.0000 C   0  0  3  0  0  0  0  0  0  0  0  0
   14.6613    4.0000    0.0000 C   0  0  3  0  0  0  0  0  0  0  0  0
    6.0010   -3.0000    0.0000 C   0  0  3  0  0  0  0  0  0  0  0  0
   15.5273    4.5000    0.0000 C   0  0  3  0  0  0  0  0  0  0  0  0
   13.7953    4.5000    0.0000 C   0  0  3  0  0  0  0  0  0  0  0  0
   15.5273    5.5000    0.0000 C   0  0  3  0  0  0  0  0  0  0  0  0
   13.7953    5.5000    0.0000 C   0  0  3  0  0  0  0  0  0  0  0  0
    2.5369   -4.0000    0.0000 C   0  0  0  0  0  0  0  0  0  0  0  0
    6.0010   -2.0000    0.0000 C   0  0  0  0  0  0  0  0  0  0  0  0
    5.0010   -3.0000    0.0000 C   0  0  0  0  0  0  0  0  0  0  0  0
   16.3933    6.0000    0.0000 C   0  0  0  0  0  0  0  0  0  0  0  0
    6.8671   -1.5000    0.0000 C   0  0  0  0  0  0  0  0  0  0  0  0
    7.0010   -3.0000    0.0000 C   0  0  0  0  0  0  0  0  0  0  0  0
   12.0632    5.5000    0.0000 C   0  0  0  0  0  0  0  0  0  0  0  0
    6.8671   -0.5000    0.0000 C   0  0  0  0  0  0  0  0  0  0  0  0
    7.5010   -3.8660    0.0000 C   0  0  0  0  0  0  0  0  0  0  0  0
    7.7331   -0.0000    0.0000 C   0  0  0  0  0  0  0  0  0  0  0  0
   11.1972    6.0000    0.0000 C   0  0  0  0  0  0  0  0  0  0  0  0
    7.7331    1.0000    0.0000 C   0  0  0  0  0  0  0  0  0  0  0  0
    8.5991    1.5000    0.0000 C   0  0  0  0  0  0  0  0  0  0  0  0
   10.3312    5.5000    0.0000 C   0  0  0  0  0  0  0  0  0  0  0  0
   10.3312    4.5000    0.0000 C   0  0  0  0  0  0  0  0  0  0  0  0
    8.5991   -0.5000    0.0000 C   0  0  0  0  0  0  0  0  0  0  0  0
    9.4651    4.0000    0.0000 C   0  0  3  0  0  0  0  0  0  0  0  0
   11.1972    7.0000    0.0000 C   0  0  0  0  0  0  0  0  0  0  0  0
    9.4651    3.0000    0.0000 C   0  0  0  0  0  0  0  0  0  0  0  0
    8.5991    2.5000    0.0000 C   0  0  0  0  0  0  0  0  0  0  0  0
   10.3312    2.5000    0.0000 C   0  0  0  0  0  0  0  0  0  0  0  0
    3.7320   -6.3100    0.0000 H   0  0  0  0  0  0  0  0  0  0  0  0
    5.1350   -6.1200    0.0000 H   0  0  0  0  0  0  0  0  0  0  0  0
    3.4030   -6.1200    0.0000 H   0  0  0  0  0  0  0  0  0  0  0  0
    5.1350   -3.8800    0.0000 H   0  0  0  0  0  0  0  0  0  0  0  0
    3.4030   -3.8800    0.0000 H   0  0  0  0  0  0  0  0  0  0  0  0
   15.1982    3.6900    0.0000 H   0  0  0  0  0  0  0  0  0  0  0  0
   15.5273    3.8800    0.0000 H   0  0  0  0  0  0  0  0  0  0  0  0
   13.7953    3.8800    0.0000 H   0  0  0  0  0  0  0  0  0  0  0  0
   15.5273    6.1200    0.0000 H   0  0  0  0  0  0  0  0  0  0  0  0
   13.7953    6.1200    0.0000 H   0  0  0  0  0  0  0  0  0  0  0  0
    1.9264   -3.8923    0.0000 H   0  0  0  0  0  0  0  0  0  0  0  0
    2.3249   -4.5826    0.0000 H   0  0  0  0  0  0  0  0  0  0  0  0
    5.7890   -1.4174    0.0000 H   0  0  0  0  0  0  0  0  0  0  0  0
    5.3905   -2.1077    0.0000 H   0  0  0  0  0  0  0  0  0  0  0  0
    5.0010   -2.3800    0.0000 H   0  0  0  0  0  0  0  0  0  0  0  0
    4.3810   -3.0000    0.0000 H   0  0  0  0  0  0  0  0  0  0  0  0
    5.0010   -3.6200    0.0000 H   0  0  0  0  0  0  0  0  0  0  0  0
   16.6054    5.4174    0.0000 H   0  0  0  0  0  0  0  0  0  0  0  0
   17.0039    6.1077    0.0000 H   0  0  0  0  0  0  0  0  0  0  0  0
    3.7320   -7.3100    0.0000 H   0  0  0  0  0  0  0  0  0  0  0  0
    6.0010   -6.6200    0.0000 H   0  0  0  0  0  0  0  0  0  0  0  0
    2.0000   -5.6900    0.0000 H   0  0  0  0  0  0  0  0  0  0  0  0
    7.0791   -2.0826    0.0000 H   0  0  0  0  0  0  0  0  0  0  0  0
    7.4776   -1.3923    0.0000 H   0  0  0  0  0  0  0  0  0  0  0  0
    7.3110   -2.4631    0.0000 H   0  0  0  0  0  0  0  0  0  0  0  0
   15.1982    2.6900    0.0000 H   0  0  0  0  0  0  0  0  0  0  0  0
   16.9303    4.3100    0.0000 H   0  0  0  0  0  0  0  0  0  0  0  0
   12.9292    3.3800    0.0000 H   0  0  0  0  0  0  0  0  0  0  0  0
    2.0000   -2.6900    0.0000 H   0  0  0  0  0  0  0  0  0  0  0  0
   11.6647    5.0250    0.0000 H   0  0  0  0  0  0  0  0  0  0  0  0
   12.4617    5.0250    0.0000 H   0  0  0  0  0  0  0  0  0  0  0  0
    6.3301   -0.1900    0.0000 H   0  0  0  0  0  0  0  0  0  0  0  0
    7.1910   -4.4030    0.0000 H   0  0  0  0  0  0  0  0  0  0  0  0
    8.1210   -3.8660    0.0000 H   0  0  0  0  0  0  0  0  0  0  0  0
   16.9303    7.3100    0.0000 H   0  0  0  0  0  0  0  0  0  0  0  0
    7.5210    1.5826    0.0000 H   0  0  0  0  0  0  0  0  0  0  0  0
    7.1225    0.8923    0.0000 H   0  0  0  0  0  0  0  0  0  0  0  0
    8.8112    0.9174    0.0000 H   0  0  0  0  0  0  0  0  0  0  0  0
    9.2097    1.6077    0.0000 H   0  0  0  0  0  0  0  0  0  0  0  0
    9.7942    5.8100    0.0000 H   0  0  0  0  0  0  0  0  0  0  0  0
   10.5432    3.9174    0.0000 H   0  0  0  0  0  0  0  0  0  0  0  0
   10.9417    4.6077    0.0000 H   0  0  0  0  0  0  0  0  0  0  0  0
    8.2891   -1.0369    0.0000 H   0  0  0  0  0  0  0  0  0  0  0  0
    9.1360   -0.8100    0.0000 H   0  0  0  0  0  0  0  0  0  0  0  0
    8.9091    0.0369    0.0000 H   0  0  0  0  0  0  0  0  0  0  0  0
    9.4651    4.6200    0.0000 H   0  0  0  0  0  0  0  0  0  0  0  0
   11.8172    7.0000    0.0000 H   0  0  0  0  0  0  0  0  0  0  0  0
   11.1972    7.6200    0.0000 H   0  0  0  0  0  0  0  0  0  0  0  0
   10.5772    7.0000    0.0000 H   0  0  0  0  0  0  0  0  0  0  0  0
    8.0622    2.8100    0.0000 H   0  0  0  0  0  0  0  0  0  0  0  0
   10.0212    1.9631    0.0000 H   0  0  0  0  0  0  0  0  0  0  0  0
   10.8681    2.1900    0.0000 H   0  0  0  0  0  0  0  0  0  0  0  0
   10.6412    3.0369    0.0000 H   0  0  0  0  0  0  0  0  0  0  0  0
    8.5991    5.1200    0.0000 H   0  0  0  0  0  0  0  0  0  0  0  0
  1 17  1  0  0  0  0
  1 18  1  0  0  0  0
  2 17  1  0  0  0  0
  2 20  1  0  0  0  0
  3 23  1  0  0  0  0
  3 24  1  0  0  0  0
  4 14  1  0  0  0  0
  4 65  1  0  0  0  0
  5 15  1  0  0  0  0
  5 66  1  0  0  0  0
  6 16  1  0  0  0  0
  6 67  1  0  0  0  0
  7 24  1  0  0  0  0
  7 31  1  0  0  0  0
  8 19  1  0  0  0  0
  8 71  1  0  0  0  0
  9 21  1  0  0  0  0
  9 72  1  0  0  0  0
 10 22  1  0  0  0  0
 10 73  1  0  0  0  0
 11 25  1  0  0  0  0
 11 74  1  0  0  0  0
 12 28  1  0  0  0  0
 12 80  1  0  0  0  0
 13 41  1  0  0  0  0
 13 99  1  0  0  0  0
 14 15  1  0  0  0  0
 14 16  1  0  0  0  0
 14 46  1  0  0  0  0
 15 17  1  0  0  0  0
 15 47  1  0  0  0  0
 16 18  1  0  0  0  0
 16 48  1  0  0  0  0
 17 49  1  0  0  0  0
 18 25  1  0  0  0  0
 18 50  1  0  0  0  0
 19 21  1  0  0  0  0
 19 22  1  0  0  0  0
 19 51  1  0  0  0  0
 20 26  1  0  0  0  0
 20 27  1  0  0  0  0
 20 30  1  0  0  0  0
 21 23  1  0  0  0  0
 21 52  1  0  0  0  0
 22 24  1  0  0  0  0
 22 53  1  0  0  0  0
 23 28  1  0  0  0  0
 23 54  1  0  0  0  0
 24 55  1  0  0  0  0
 25 56  1  0  0  0  0
 25 57  1  0  0  0  0
 26 29  1  0  0  0  0
 26 58  1  0  0  0  0
 26 59  1  0  0  0  0
 27 60  1  0  0  0  0
 27 61  1  0  0  0  0
 27 62  1  0  0  0  0
 28 63  1  0  0  0  0
 28 64  1  0  0  0  0
 29 32  1  0  0  0  0
 29 68  1  0  0  0  0
 29 69  1  0  0  0  0
 30 33  2  0  0  0  0
 30 70  1  0  0  0  0
 31 35  1  0  0  0  0
 31 75  1  0  0  0  0
 31 76  1  0  0  0  0
 32 34  2  0  0  0  0
 32 77  1  0  0  0  0
 33 78  1  0  0  0  0
 33 79  1  0  0  0  0
 34 36  1  0  0  0  0
 34 40  1  0  0  0  0
 35 38  2  0  0  0  0
 35 42  1  0  0  0  0
 36 37  1  0  0  0  0
 36 81  1  0  0  0  0
 36 82  1  0  0  0  0
 37 44  1  0  0  0  0
 37 83  1  0  0  0  0
 37 84  1  0  0  0  0
 38 39  1  0  0  0  0
 38 85  1  0  0  0  0
 39 41  1  0  0  0  0
 39 86  1  0  0  0  0
 39 87  1  0  0  0  0
 40 88  1  0  0  0  0
 40 89  1  0  0  0  0
 40 90  1  0  0  0  0
 41 43  1  0  0  0  0
 41 91  1  0  0  0  0
 42 92  1  0  0  0  0
 42 93  1  0  0  0  0
 42 94  1  0  0  0  0
 43 44  2  0  0  0  0
 43 45  1  0  0  0  0
 44 95  1  0  0  0  0
 45 96  1  0  0  0  0
 45 97  1  0  0  0  0
 45 98  1  0  0  0  0
M  END
> <PUBCHEM_COMPOUND_CID>
131751390

> <PUBCHEM_COMPOUND_CANONICALIZED>
1

> <PUBCHEM_CACTVS_COMPLEXITY>
1000

> <PUBCHEM_CACTVS_HBOND_ACCEPTOR>
13

> <PUBCHEM_CACTVS_HBOND_DONOR>
9

> <PUBCHEM_CACTVS_ROTATABLE_BOND>
17

> <PUBCHEM_CACTVS_SUBSKEYS>
AAADcfB8PAAAAAAAAAAAAAAAAAAAAAAAAAAkSAAAAAAAAAAAAAAAGgAACAAADFSwgAMCCAAABgCAAiBCAAAAAAAgAAAICAAAAAgRFAIAIQAiUAAFwAAPMAPAYAwMAAAAAAAAAAAAAAAAAAAAAAAAAAAAAA==

> <PUBCHEM_IUPAC_OPENEYE_NAME>
2-(hydroxymethyl)-6-[(2Z,6E,10E)-5-hydroxy-2,6,10,14-tetramethyl-14-[3,4,5-trihydroxy-6-(hydroxymethyl)tetrahydropyran-2-yl]oxy-hexadeca-2,6,10,15-tetraenoxy]tetrahydropyran-3,4,5-triol

> <PUBCHEM_IUPAC_CAS_NAME>
2-(hydroxymethyl)-6-[(2Z,6E,10E)-5-hydroxy-2,6,10,14-tetramethyl-14-[[3,4,5-trihydroxy-6-(hydroxymethyl)-2-oxanyl]oxy]hexadeca-2,6,10,15-tetraenoxy]oxane-3,4,5-triol

> <PUBCHEM_IUPAC_NAME_MARKUP>
2-(hydroxymethyl)-6-[(2<I>Z</I>,6<I>E</I>,10<I>E</I>)-5-hydroxy-2,6,10,14-tetramethyl-14-[3,4,5-trihydroxy-6-(hydroxymethyl)oxan-2-yl]oxyhexadeca-2,6,10,15-tetraenoxy]oxane-3,4,5-triol

> <PUBCHEM_IUPAC_NAME>
2-(hydroxymethyl)-6-[(2Z,6E,10E)-5-hydroxy-2,6,10,14-tetramethyl-14-[3,4,5-trihydroxy-6-(hydroxymethyl)oxan-2-yl]oxyhexadeca-2,6,10,15-tetraenoxy]oxane-3,4,5-triol

> <PUBCHEM_IUPAC_SYSTEMATIC_NAME>
2-(hydroxymethyl)-6-[(2Z,6E,10E)-14-[6-(hydroxymethyl)-3,4,5-tris(oxidanyl)oxan-2-yl]oxy-2,6,10,14-tetramethyl-5-oxidanyl-hexadeca-2,6,10,15-tetraenoxy]oxane-3,4,5-triol

> <PUBCHEM_IUPAC_TRADITIONAL_NAME>
2-[(2Z,6E,10E)-5-hydroxy-2,6,10,14-tetramethyl-14-(3,4,5-trihydroxy-6-methylol-tetrahydropyran-2-yl)oxy-hexadeca-2,6,10,15-tetraenoxy]-6-methylol-tetrahydropyran-3,4,5-triol

> <PUBCHEM_IUPAC_INCHI>
InChI=1S/C32H54O13/c1-6-32(5,45-31-29(41)27(39)25(37)23(16-34)44-31)14-8-10-18(2)9-7-11-20(4)21(35)13-12-19(3)17-42-30-28(40)26(38)24(36)22(15-33)43-30/h6,10-12,21-31,33-41H,1,7-9,13-17H2,2-5H3/b18-10+,19-12-,20-11+

> <PUBCHEM_IUPAC_INCHIKEY>
ISGIJSAAZOHCAE-DBWZVHPFSA-N

> <PUBCHEM_XLOGP3_AA>
0.9

> <PUBCHEM_EXACT_MASS>
646.356442

> <PUBCHEM_MOLECULAR_FORMULA>
C32H54O13

> <PUBCHEM_MOLECULAR_WEIGHT>
646.8

> <PUBCHEM_OPENEYE_CAN_SMILES>
CC(=CCCC(C)(C=C)OC1C(C(C(C(O1)CO)O)O)O)CCC=C(C)C(CC=C(C)COC2C(C(C(C(O2)CO)O)O)O)O

> <PUBCHEM_OPENEYE_ISO_SMILES>
C/C(=C\CCC(C)(C=C)OC1C(C(C(C(O1)CO)O)O)O)/CC/C=C(\C)/C(C/C=C(/C)\COC2C(C(C(C(O2)CO)O)O)O)O

> <PUBCHEM_CACTVS_TPSA>
219

> <PUBCHEM_MONOISOTOPIC_WEIGHT>
646.356442

> <PUBCHEM_TOTAL_CHARGE>
0

> <PUBCHEM_HEAVY_ATOM_COUNT>
45

> <PUBCHEM_ATOM_DEF_STEREO_COUNT>
0

> <PUBCHEM_ATOM_UDEF_STEREO_COUNT>
12

> <PUBCHEM_BOND_DEF_STEREO_COUNT>
3

> <PUBCHEM_BOND_UDEF_STEREO_COUNT>
0

> <PUBCHEM_ISOTOPIC_ATOM_COUNT>
0

> <PUBCHEM_COMPONENT_COUNT>
1

> <PUBCHEM_CACTVS_TAUTO_COUNT>
-1

> <PUBCHEM_COORDINATE_TYPE>
1
5
255

> <PUBCHEM_BONDANNOTATIONS>
22  10  3
41  13  3
18  25  3
17  2  3
20  27  3
23  28  3
14  4  3
15  5  3
16  6  3
24  7  3
19  8  3
21  9  3

$$$$
