2786702
  -OEChem-11202004253D

 17 17  0     0  0  0  0  0  0999 V2000
   -1.7482   -1.2259   -0.4329 O   0  0  0  0  0  0  0  0  0  0  0  0
    1.6896    2.0018    0.2511 O   0  0  0  0  0  0  0  0  0  0  0  0
    2.2239   -0.2332    0.1201 N   0  0  0  0  0  0  0  0  0  0  0  0
   -1.8875    2.3501   -0.1413 N   0  0  0  0  0  0  0  0  0  0  0  0
   -0.4420   -0.8196   -0.2441 C   0  0  0  0  0  0  0  0  0  0  0  0
   -0.1101    0.4758   -0.0935 C   0  0  0  0  0  0  0  0  0  0  0  0
    0.5586   -1.8639   -0.2165 C   0  0  0  0  0  0  0  0  0  0  0  0
    1.3377    0.8324    0.1076 C   0  0  0  0  0  0  0  0  0  0  0  0
    1.8434   -1.5404   -0.0376 C   0  0  0  0  0  0  0  0  0  0  0  0
   -2.3760   -1.4857    0.8070 C   0  0  0  0  0  0  0  0  0  0  0  0
   -1.0894    1.5086   -0.1199 C   0  0  0  0  0  0  0  0  0  0  0  0
    0.2540   -2.8964   -0.3437 H   0  0  0  0  0  0  0  0  0  0  0  0
    2.6363   -2.2767   -0.0086 H   0  0  0  0  0  0  0  0  0  0  0  0
    3.2132   -0.0450    0.2528 H   0  0  0  0  0  0  0  0  0  0  0  0
   -3.4083   -1.7889    0.6071 H   0  0  0  0  0  0  0  0  0  0  0  0
   -2.4076   -0.5954    1.4444 H   0  0  0  0  0  0  0  0  0  0  0  0
   -1.8841   -2.3081    1.3384 H   0  0  0  0  0  0  0  0  0  0  0  0
  1  5  1  0  0  0  0
  1 10  1  0  0  0  0
  2  8  2  0  0  0  0
  3  8  1  0  0  0  0
  3  9  1  0  0  0  0
  3 14  1  0  0  0  0
  4 11  3  0  0  0  0
  5  6  2  0  0  0  0
  5  7  1  0  0  0  0
  6  8  1  0  0  0  0
  6 11  1  0  0  0  0
  7  9  2  0  0  0  0
  7 12  1  0  0  0  0
  9 13  1  0  0  0  0
 10 15  1  0  0  0  0
 10 16  1  0  0  0  0
 10 17  1  0  0  0  0
M  END
> <PUBCHEM_COMPOUND_CID>
2786702

> <PUBCHEM_CONFORMER_RMSD>
0.4

> <PUBCHEM_CONFORMER_DIVERSEORDER>
2
1
3

> <PUBCHEM_MMFF94_PARTIAL_CHARGES>
14
1 -0.36
10 0.28
11 0.49
12 0.15
13 0.15
14 0.37
2 -0.57
3 -0.54
4 -0.56
5 0.08
6 0.08
7 -0.15
8 0.62
9 -0.04

> <PUBCHEM_EFFECTIVE_ROTOR_COUNT>
1

> <PUBCHEM_PHARMACOPHORE_FEATURES>
5
1 1 acceptor
1 2 acceptor
1 3 donor
1 4 acceptor
6 3 5 6 7 8 9 rings

> <PUBCHEM_HEAVY_ATOM_COUNT>
11

> <PUBCHEM_ATOM_DEF_STEREO_COUNT>
0

> <PUBCHEM_ATOM_UDEF_STEREO_COUNT>
0

> <PUBCHEM_BOND_DEF_STEREO_COUNT>
0

> <PUBCHEM_BOND_UDEF_STEREO_COUNT>
0

> <PUBCHEM_ISOTOPIC_ATOM_COUNT>
0

> <PUBCHEM_COMPONENT_COUNT>
1

> <PUBCHEM_CACTVS_TAUTO_COUNT>
2

> <PUBCHEM_CONFORMER_ID>
002A858E00000002

> <PUBCHEM_MMFF94_ENERGY>
28.8546

> <PUBCHEM_FEATURE_SELFOVERLAP>
25.373

> <PUBCHEM_SHAPE_FINGERPRINT>
11206711 2 18410860957902611526
161256 15 18269290086814603878
16945 1 18339639048589401078
18185500 45 17764021771864644462
193761 8 18411135814266211732
21040471 1 18050566240271837636
23552423 10 18333452049325399670
241688 4 15964560470673931802
2748010 2 18269834225185983982
29004967 10 17972880538216534971
5084963 1 18060138786161662266
66348 1 18410849941100539284

> <PUBCHEM_SHAPE_MULTIPOLES>
204.67
2.92
2.59
0.68
0.21
0.59
-0.04
-0.18
-0.3
0.71
-0.1
0.13
-0.13
0.4

> <PUBCHEM_SHAPE_SELFOVERLAP>
426.117

> <PUBCHEM_SHAPE_VOLUME>
113.8

> <PUBCHEM_COORDINATE_TYPE>
2
5
10

$$$$
