21123857
  -OEChem-11202007153D

 79 82  0     1  0  0  0  0  0999 V2000
   -2.1585   -2.9096    1.2627 O   0  0  0  0  0  0  0  0  0  0  0  0
   -7.4691    0.1713   -0.0511 O   0  0  0  0  0  0  0  0  0  0  0  0
    0.3146    0.7231    0.8092 C   0  0  1  0  0  0  0  0  0  0  0  0
   -0.3909   -0.6505    0.6903 C   0  0  2  0  0  0  0  0  0  0  0  0
   -1.9156   -0.5377    0.8232 C   0  0  1  0  0  0  0  0  0  0  0  0
    1.7873    0.2629    0.6936 C   0  0  2  0  0  0  0  0  0  0  0  0
   -2.4428    0.4038   -0.3061 C   0  0  1  0  0  0  0  0  0  0  0  0
   -0.1679    1.6105   -0.3446 C   0  0  0  0  0  0  0  0  0  0  0  0
    0.3948   -1.5237    1.6694 C   0  0  0  0  0  0  0  0  0  0  0  0
   -4.0102    0.5132   -0.2631 C   0  0  2  0  0  0  0  0  0  0  0  0
   -1.6980    1.7620   -0.3391 C   0  0  0  0  0  0  0  0  0  0  0  0
    1.8409   -1.0024    1.5771 C   0  0  0  0  0  0  0  0  0  0  0  0
    2.8533    1.2858    1.0596 C   0  0  1  0  0  0  0  0  0  0  0  0
    0.0628    1.4469    2.1575 C   0  0  0  0  0  0  0  0  0  0  0  0
   -2.6160   -1.8927    0.7433 C   0  0  0  0  0  0  0  0  0  0  0  0
   -4.5649   -0.9031   -0.4181 C   0  0  0  0  0  0  0  0  0  0  0  0
   -4.5307    1.3767   -1.4395 C   0  0  0  0  0  0  0  0  0  0  0  0
   -4.4900    1.1260    1.0746 C   0  0  0  0  0  0  0  0  0  0  0  0
   -3.9268   -1.9868    0.0544 C   0  0  0  0  0  0  0  0  0  0  0  0
    4.2564    0.6561    0.9304 C   0  0  0  0  0  0  0  0  0  0  0  0
   -5.8096   -1.1042   -1.2583 C   0  0  0  0  0  0  0  0  0  0  0  0
   -6.0607    1.4251   -1.5610 C   0  0  0  0  0  0  0  0  0  0  0  0
    2.7023    2.5374    0.1885 C   0  0  0  0  0  0  0  0  0  0  0  0
   -6.7584    0.0906   -1.2862 C   0  0  2  0  0  0  0  0  0  0  0  0
    4.6065    0.0504   -0.4388 C   0  0  0  0  0  0  0  0  0  0  0  0
    5.9784   -0.6655   -0.5431 C   0  0  2  0  0  0  0  0  0  0  0  0
    7.1648    0.2577   -0.1184 C   0  0  0  0  0  0  0  0  0  0  0  0
    6.1635   -1.2819   -1.9519 C   0  0  0  0  0  0  0  0  0  0  0  0
    7.3015    1.4837   -1.0305 C   0  0  0  0  0  0  0  0  0  0  0  0
    8.5117   -0.4640   -0.0235 C   0  0  0  0  0  0  0  0  0  0  0  0
    5.0711   -2.2612   -2.3605 C   0  0  0  0  0  0  0  0  0  0  0  0
   -0.1923   -1.0681   -0.3110 H   0  0  0  0  0  0  0  0  0  0  0  0
   -2.1635   -0.1360    1.8105 H   0  0  0  0  0  0  0  0  0  0  0  0
    1.9286   -0.0514   -0.3493 H   0  0  0  0  0  0  0  0  0  0  0  0
   -2.1912   -0.0817   -1.2644 H   0  0  0  0  0  0  0  0  0  0  0  0
    0.1391    1.1826   -1.3076 H   0  0  0  0  0  0  0  0  0  0  0  0
    0.2354    2.6221   -0.3061 H   0  0  0  0  0  0  0  0  0  0  0  0
    0.3537   -2.5840    1.4017 H   0  0  0  0  0  0  0  0  0  0  0  0
    0.0148   -1.4232    2.6922 H   0  0  0  0  0  0  0  0  0  0  0  0
   -1.9986    2.3856    0.5083 H   0  0  0  0  0  0  0  0  0  0  0  0
   -1.9744    2.3166   -1.2428 H   0  0  0  0  0  0  0  0  0  0  0  0
    2.4965   -1.7602    1.1342 H   0  0  0  0  0  0  0  0  0  0  0  0
    2.2157   -0.7916    2.5851 H   0  0  0  0  0  0  0  0  0  0  0  0
    2.7503    1.5939    2.1076 H   0  0  0  0  0  0  0  0  0  0  0  0
    0.4645    0.8926    3.0115 H   0  0  0  0  0  0  0  0  0  0  0  0
    0.5240    2.4394    2.1725 H   0  0  0  0  0  0  0  0  0  0  0  0
   -1.0005    1.6023    2.3590 H   0  0  0  0  0  0  0  0  0  0  0  0
   -4.1745    2.4100   -1.3532 H   0  0  0  0  0  0  0  0  0  0  0  0
   -4.1208    0.9906   -2.3833 H   0  0  0  0  0  0  0  0  0  0  0  0
   -5.5764    1.2295    1.1242 H   0  0  0  0  0  0  0  0  0  0  0  0
   -4.0767    2.1281    1.2255 H   0  0  0  0  0  0  0  0  0  0  0  0
   -4.2105    0.5152    1.9387 H   0  0  0  0  0  0  0  0  0  0  0  0
   -4.3248   -2.9861   -0.0911 H   0  0  0  0  0  0  0  0  0  0  0  0
    4.9850    1.4374    1.1761 H   0  0  0  0  0  0  0  0  0  0  0  0
    4.3846   -0.1166    1.6984 H   0  0  0  0  0  0  0  0  0  0  0  0
   -5.4829   -1.3050   -2.2873 H   0  0  0  0  0  0  0  0  0  0  0  0
   -6.3541   -1.9913   -0.9106 H   0  0  0  0  0  0  0  0  0  0  0  0
   -6.4562    2.2051   -0.8986 H   0  0  0  0  0  0  0  0  0  0  0  0
   -6.2972    1.7482   -2.5829 H   0  0  0  0  0  0  0  0  0  0  0  0
    1.9435    3.2163    0.5820 H   0  0  0  0  0  0  0  0  0  0  0  0
    2.4945    2.2985   -0.8589 H   0  0  0  0  0  0  0  0  0  0  0  0
    3.6340    3.1162    0.2010 H   0  0  0  0  0  0  0  0  0  0  0  0
   -7.5200   -0.0718   -2.0582 H   0  0  0  0  0  0  0  0  0  0  0  0
    4.5261    0.8200   -1.2146 H   0  0  0  0  0  0  0  0  0  0  0  0
    3.8472   -0.6984   -0.6737 H   0  0  0  0  0  0  0  0  0  0  0  0
    5.9559   -1.4990    0.1735 H   0  0  0  0  0  0  0  0  0  0  0  0
   -7.9396   -0.6703    0.0742 H   0  0  0  0  0  0  0  0  0  0  0  0
    6.9614    0.6229    0.8951 H   0  0  0  0  0  0  0  0  0  0  0  0
    6.2147   -0.4934   -2.7108 H   0  0  0  0  0  0  0  0  0  0  0  0
    7.1175   -1.8195   -1.9876 H   0  0  0  0  0  0  0  0  0  0  0  0
    6.3850    2.0796   -1.0539 H   0  0  0  0  0  0  0  0  0  0  0  0
    7.5605    1.2042   -2.0561 H   0  0  0  0  0  0  0  0  0  0  0  0
    8.0982    2.1405   -0.6627 H   0  0  0  0  0  0  0  0  0  0  0  0
    9.2676    0.1892    0.4261 H   0  0  0  0  0  0  0  0  0  0  0  0
    8.8822   -0.7668   -1.0078 H   0  0  0  0  0  0  0  0  0  0  0  0
    8.4292   -1.3583    0.6027 H   0  0  0  0  0  0  0  0  0  0  0  0
    4.9033   -3.0134   -1.5835 H   0  0  0  0  0  0  0  0  0  0  0  0
    5.3636   -2.7831   -3.2778 H   0  0  0  0  0  0  0  0  0  0  0  0
    4.1260   -1.7516   -2.5686 H   0  0  0  0  0  0  0  0  0  0  0  0
  1 15  2  0  0  0  0
  2 24  1  0  0  0  0
  2 67  1  0  0  0  0
  3  4  1  0  0  0  0
  3  6  1  0  0  0  0
  3  8  1  0  0  0  0
  3 14  1  0  0  0  0
  4  5  1  0  0  0  0
  4  9  1  0  0  0  0
  4 32  1  0  0  0  0
  5  7  1  0  0  0  0
  5 15  1  0  0  0  0
  5 33  1  0  0  0  0
  6 12  1  0  0  0  0
  6 13  1  0  0  0  0
  6 34  1  0  0  0  0
  7 10  1  0  0  0  0
  7 11  1  0  0  0  0
  7 35  1  0  0  0  0
  8 11  1  0  0  0  0
  8 36  1  0  0  0  0
  8 37  1  0  0  0  0
  9 12  1  0  0  0  0
  9 38  1  0  0  0  0
  9 39  1  0  0  0  0
 10 16  1  0  0  0  0
 10 17  1  0  0  0  0
 10 18  1  0  0  0  0
 11 40  1  0  0  0  0
 11 41  1  0  0  0  0
 12 42  1  0  0  0  0
 12 43  1  0  0  0  0
 13 20  1  0  0  0  0
 13 23  1  0  0  0  0
 13 44  1  0  0  0  0
 14 45  1  0  0  0  0
 14 46  1  0  0  0  0
 14 47  1  0  0  0  0
 15 19  1  0  0  0  0
 16 19  2  0  0  0  0
 16 21  1  0  0  0  0
 17 22  1  0  0  0  0
 17 48  1  0  0  0  0
 17 49  1  0  0  0  0
 18 50  1  0  0  0  0
 18 51  1  0  0  0  0
 18 52  1  0  0  0  0
 19 53  1  0  0  0  0
 20 25  1  0  0  0  0
 20 54  1  0  0  0  0
 20 55  1  0  0  0  0
 21 24  1  0  0  0  0
 21 56  1  0  0  0  0
 21 57  1  0  0  0  0
 22 24  1  0  0  0  0
 22 58  1  0  0  0  0
 22 59  1  0  0  0  0
 23 60  1  0  0  0  0
 23 61  1  0  0  0  0
 23 62  1  0  0  0  0
 24 63  1  0  0  0  0
 25 26  1  0  0  0  0
 25 64  1  0  0  0  0
 25 65  1  0  0  0  0
 26 27  1  0  0  0  0
 26 28  1  0  0  0  0
 26 66  1  0  0  0  0
 27 29  1  0  0  0  0
 27 30  1  0  0  0  0
 27 68  1  0  0  0  0
 28 31  1  0  0  0  0
 28 69  1  0  0  0  0
 28 70  1  0  0  0  0
 29 71  1  0  0  0  0
 29 72  1  0  0  0  0
 29 73  1  0  0  0  0
 30 74  1  0  0  0  0
 30 75  1  0  0  0  0
 30 76  1  0  0  0  0
 31 77  1  0  0  0  0
 31 78  1  0  0  0  0
 31 79  1  0  0  0  0
M  END
> <PUBCHEM_COMPOUND_CID>
21123857

> <PUBCHEM_CONFORMER_RMSD>
1

> <PUBCHEM_CONFORMER_DIVERSEORDER>
6
7
9
1
8
10
4
3
2
5

> <PUBCHEM_MMFF94_PARTIAL_CHARGES>
11
1 -0.57
10 0.14
15 0.49
16 -0.28
19 -0.14
2 -0.68
21 0.14
24 0.28
5 0.06
53 0.15
67 0.4

> <PUBCHEM_EFFECTIVE_ROTOR_COUNT>
7.8

> <PUBCHEM_PHARMACOPHORE_FEATURES>
11
1 1 acceptor
1 2 acceptor
1 2 donor
1 23 hydrophobe
1 31 hydrophobe
3 27 29 30 hydrophobe
5 3 4 6 9 12 rings
6 10 16 17 21 22 24 rings
6 13 20 25 26 27 28 hydrophobe
6 3 4 5 7 8 11 rings
6 5 7 10 15 16 19 rings

> <PUBCHEM_HEAVY_ATOM_COUNT>
31

> <PUBCHEM_ATOM_DEF_STEREO_COUNT>
8

> <PUBCHEM_ATOM_UDEF_STEREO_COUNT>
1

> <PUBCHEM_BOND_DEF_STEREO_COUNT>
0

> <PUBCHEM_BOND_UDEF_STEREO_COUNT>
0

> <PUBCHEM_ISOTOPIC_ATOM_COUNT>
0

> <PUBCHEM_COMPONENT_COUNT>
1

> <PUBCHEM_CACTVS_TAUTO_COUNT>
5

> <PUBCHEM_CONFORMER_ID>
0142531100000006

> <PUBCHEM_MMFF94_ENERGY>
103.4879

> <PUBCHEM_FEATURE_SELFOVERLAP>
55.931

> <PUBCHEM_SHAPE_FINGERPRINT>
10 15 8790885190163400436
10076449 9 18335425690557459537
10369192 42 13262395557328245754
106641 1 11671776083934745666
10670039 82 17821721715455276485
10674148 151 18130785642583472049
10835480 77 18338518655622254096
11315181 36 18202284731616329225
12166972 35 15482664710470862376
12954195 1 18342176622563212097
13533116 47 16558744625073871202
13540713 4 18119528992456001032
13540713 5 17753599148942190680
13690498 29 18119532278270246179
13782708 43 15626212542415955669
13811026 1 18343585132061709086
13914758 101 16630532808597963825
14251764 18 12607400027016846224
14294032 229 17387119889222916108
14840074 17 16008748009227941143
14849402 71 10015282668849047506
14856354 85 15140967283374302035
14931854 50 18339346510394088565
150020 25 18341052999969873780
15131766 46 14418427645029283614
15183329 4 18334010584469074810
15361156 5 18339363079528532316
1813 80 15482399737149302272
18608769 82 17895201051770330675
19958102 18 18337116666184377054
20105231 36 18261394482017956283
20567600 247 17203323403783122414
21267235 1 18334294318825455939
21756936 100 16225766332773267705
21792934 111 10015864293631124591
21792961 116 18333453131588710482
22122407 14 14057010390666968132
22224240 67 11458424630871720457
22393880 68 18262229023130561547
23559900 14 18338794628038931536
23569914 152 17481416080651968567
23569943 247 17843972437725083654
23576562 1 17604433036349867300
249057 3 18333447668305978388
25269216 80 17532674501238739234
2838139 119 14779265328378231974
3004659 81 18409160035132300168
335352 9 18260822722484561277
392239 28 11458426829889493438
4098825 35 17917715664950564577
437815 12 18202846556478411376
474113 269 14333128516752213101
5104073 3 11599426088302059151
5265222 85 18261392311972313791
59755656 215 18335416850887289454
59755656 520 14923945661019714136
6608658 132 17385719145483920845
9953998 17 8646771105767493871

> <PUBCHEM_SHAPE_MULTIPOLES>
626.23
20.65
2.32
1.8
17.67
0.48
0.13
1.7
11.63
0.16
0.05
0.34
0.43
1.92

> <PUBCHEM_SHAPE_SELFOVERLAP>
1298.397

> <PUBCHEM_SHAPE_VOLUME>
356.8

> <PUBCHEM_COORDINATE_TYPE>
2
5
10

$$$$
