5487248
  -OEChem-11202007443D

 35 37  0     1  0  0  0  0  0999 V2000
    1.0338    2.7784   -0.1995 O   0  0  0  0  0  0  0  0  0  0  0  0
   -3.3368   -1.1280    0.0756 O   0  0  0  0  0  0  0  0  0  0  0  0
   -1.5993    3.9831    0.3007 O   0  0  0  0  0  0  0  0  0  0  0  0
   -0.3240   -2.0639    0.8410 O   0  0  0  0  0  0  0  0  0  0  0  0
   -1.9866   -0.2610   -1.5864 O   0  0  0  0  0  0  0  0  0  0  0  0
    3.2250    2.5474   -0.7249 O   0  0  0  0  0  0  0  0  0  0  0  0
    1.9150   -3.5404    0.5248 O   0  0  0  0  0  0  0  0  0  0  0  0
    4.2936   -2.3505   -0.2171 O   0  0  0  0  0  0  0  0  0  0  0  0
   -1.7103    0.4350    0.7051 C   0  0  1  0  0  0  0  0  0  0  0  0
   -0.3124    0.8190    0.3438 C   0  0  0  0  0  0  0  0  0  0  0  0
   -2.4475    1.7759    0.8468 C   0  0  0  0  0  0  0  0  0  0  0  0
   -0.1308    2.1237    0.1488 C   0  0  0  0  0  0  0  0  0  0  0  0
    0.8529   -0.0395    0.2117 C   0  0  0  0  0  0  0  0  0  0  0  0
   -1.4142    2.7814    0.4078 C   0  0  0  0  0  0  0  0  0  0  0  0
    2.0718    0.5568   -0.1550 C   0  0  0  0  0  0  0  0  0  0  0  0
   -2.3378   -0.3416   -0.4171 C   0  0  0  0  0  0  0  0  0  0  0  0
    0.8101   -1.4196    0.4422 C   0  0  0  0  0  0  0  0  0  0  0  0
    2.1673    2.0291   -0.3868 C   0  0  0  0  0  0  0  0  0  0  0  0
    3.2242   -0.2261   -0.2997 C   0  0  0  0  0  0  0  0  0  0  0  0
    1.9615   -2.1957    0.2974 C   0  0  0  0  0  0  0  0  0  0  0  0
    3.1647   -1.6008   -0.0746 C   0  0  0  0  0  0  0  0  0  0  0  0
   -4.0247   -1.9268   -0.8923 C   0  0  0  0  0  0  0  0  0  0  0  0
   -5.0955   -2.7361   -0.1924 C   0  0  0  0  0  0  0  0  0  0  0  0
   -1.7489   -0.1296    1.6425 H   0  0  0  0  0  0  0  0  0  0  0  0
   -2.7056    1.9708    1.8926 H   0  0  0  0  0  0  0  0  0  0  0  0
   -3.3394    1.8556    0.2181 H   0  0  0  0  0  0  0  0  0  0  0  0
    4.1696    0.2294   -0.5840 H   0  0  0  0  0  0  0  0  0  0  0  0
   -4.4845   -1.2748   -1.6433 H   0  0  0  0  0  0  0  0  0  0  0  0
   -3.3123   -2.6001   -1.3820 H   0  0  0  0  0  0  0  0  0  0  0  0
   -0.1308   -3.0114    0.9460 H   0  0  0  0  0  0  0  0  0  0  0  0
    2.8036   -3.9084    0.3774 H   0  0  0  0  0  0  0  0  0  0  0  0
   -5.6424   -3.3602   -0.9048 H   0  0  0  0  0  0  0  0  0  0  0  0
   -4.6522   -3.3799    0.5744 H   0  0  0  0  0  0  0  0  0  0  0  0
   -5.8053   -2.0765    0.3177 H   0  0  0  0  0  0  0  0  0  0  0  0
    5.0297   -1.7707   -0.4778 H   0  0  0  0  0  0  0  0  0  0  0  0
  1 12  1  0  0  0  0
  1 18  1  0  0  0  0
  2 16  1  0  0  0  0
  2 22  1  0  0  0  0
  3 14  2  0  0  0  0
  4 17  1  0  0  0  0
  4 30  1  0  0  0  0
  5 16  2  0  0  0  0
  6 18  2  0  0  0  0
  7 20  1  0  0  0  0
  7 31  1  0  0  0  0
  8 21  1  0  0  0  0
  8 35  1  0  0  0  0
  9 10  1  0  0  0  0
  9 11  1  0  0  0  0
  9 16  1  0  0  0  0
  9 24  1  0  0  0  0
 10 12  2  0  0  0  0
 10 13  1  0  0  0  0
 11 14  1  0  0  0  0
 11 25  1  0  0  0  0
 11 26  1  0  0  0  0
 12 14  1  0  0  0  0
 13 15  1  0  0  0  0
 13 17  2  0  0  0  0
 15 18  1  0  0  0  0
 15 19  2  0  0  0  0
 17 20  1  0  0  0  0
 19 21  1  0  0  0  0
 19 27  1  0  0  0  0
 20 21  2  0  0  0  0
 22 23  1  0  0  0  0
 22 28  1  0  0  0  0
 22 29  1  0  0  0  0
 23 32  1  0  0  0  0
 23 33  1  0  0  0  0
 23 34  1  0  0  0  0
M  END
> <PUBCHEM_COMPOUND_CID>
5487248

> <PUBCHEM_CONFORMER_RMSD>
0.6

> <PUBCHEM_CONFORMER_DIVERSEORDER>
2
1
4
7
8
10
3
5
6
9

> <PUBCHEM_MMFF94_PARTIAL_CHARGES>
26
1 -0.23
10 -0.17
11 0.06
12 0.09
13 0.03
14 0.49
15 0.09
16 0.66
17 0.08
18 0.63
19 -0.15
2 -0.43
20 0.08
21 0.08
22 0.28
27 0.15
3 -0.57
30 0.45
31 0.45
35 0.45
4 -0.53
5 -0.57
6 -0.57
7 -0.53
8 -0.53
9 0.2

> <PUBCHEM_EFFECTIVE_ROTOR_COUNT>
3.4

> <PUBCHEM_PHARMACOPHORE_FEATURES>
9
1 3 acceptor
1 4 donor
1 5 acceptor
1 6 acceptor
1 7 donor
1 8 donor
5 9 10 11 12 14 rings
6 1 10 12 13 15 18 rings
6 13 15 17 19 20 21 rings

> <PUBCHEM_HEAVY_ATOM_COUNT>
23

> <PUBCHEM_ATOM_DEF_STEREO_COUNT>
0

> <PUBCHEM_ATOM_UDEF_STEREO_COUNT>
1

> <PUBCHEM_BOND_DEF_STEREO_COUNT>
0

> <PUBCHEM_BOND_UDEF_STEREO_COUNT>
0

> <PUBCHEM_ISOTOPIC_ATOM_COUNT>
0

> <PUBCHEM_COMPONENT_COUNT>
1

> <PUBCHEM_CACTVS_TAUTO_COUNT>
363

> <PUBCHEM_CONFORMER_ID>
0053BA9000000002

> <PUBCHEM_MMFF94_ENERGY>
56.0432

> <PUBCHEM_FEATURE_SELFOVERLAP>
45.783

> <PUBCHEM_SHAPE_FINGERPRINT>
10411042 1 18411419513915227571
10616163 171 18197498424240907742
10693767 8 18058171811283576590
10967382 1 18194125350394816792
1100329 8 18339364037649416329
11135609 187 17976543028924568045
12553582 1 18120374250868354474
13132413 78 18122069693709074588
13140716 1 18342177717663724184
138480 1 14952937145381064499
13911987 19 17757003559101495900
14178342 30 18266724797659704858
14790565 3 17398989409281505953
16945 1 18335991904237814648
17492 89 18412826858987275998
19591789 44 17112980119505277307
20645477 70 18190169269267720631
20775438 99 17687977099931202389
20905425 154 18343869922077945492
21267235 1 17977119963074441520
21452121 199 18265873869917185947
21634736 98 18411135822914428606
221490 88 18335423508044738091
2334 1 18409456877454678832
23379529 103 18202292398133752110
23402539 116 18121217581135947670
23419403 2 15601919811910182801
23558518 356 18336834099921904816
23559900 14 18340756053582070064
23598288 3 18059292067829874789
238 59 17544713135729049343
2748010 2 16823342888224377964
283562 15 18340495585280452336
3323516 105 18192144022200016831
335352 9 17038952741901424372
34934 24 17758399574170557984
352729 6 16028449797657075728
46194498 28 17533205613089634839
484989 97 17182502230965831623
6443956 14 18337388374431479565
70251023 43 18411141324831228179
7164475 11 18412544310168085805
7471813 234 18341597235611518070
7832392 63 18050569543333868328
90525 40 17838616652165977589

> <PUBCHEM_SHAPE_MULTIPOLES>
426.37
6.86
4.43
0.88
4.22
1.22
0.11
-5.87
1.48
-0.09
-0.41
0.34
-0.04
-1.17

> <PUBCHEM_SHAPE_SELFOVERLAP>
947.492

> <PUBCHEM_SHAPE_VOLUME>
228.5

> <PUBCHEM_COORDINATE_TYPE>
2
5
10

$$$$
