5320861
  -OEChem-11202004343D

 49 52  0     1  0  0  0  0  0999 V2000
    1.0173   -2.7990    0.1595 O   0  0  0  0  0  0  0  0  0  0  0  0
    0.5902   -0.7928    1.2754 O   0  0  0  0  0  0  0  0  0  0  0  0
    5.0645   -2.0887    0.2612 O   0  0  0  0  0  0  0  0  0  0  0  0
    3.2141    0.1019    0.6003 O   0  0  0  0  0  0  0  0  0  0  0  0
    3.9466   -4.1004   -1.5822 O   0  0  0  0  0  0  0  0  0  0  0  0
   -1.8786    1.5104   -0.2036 O   0  0  0  0  0  0  0  0  0  0  0  0
   -1.7388   -2.3113    1.2032 O   0  0  0  0  0  0  0  0  0  0  0  0
   -4.2754   -2.6153    0.6462 O   0  0  0  0  0  0  0  0  0  0  0  0
   -6.4911    1.1277   -1.2580 O   0  0  0  0  0  0  0  0  0  0  0  0
    3.1380    2.8782   -2.0089 O   0  0  0  0  0  0  0  0  0  0  0  0
    3.6184    4.5619    0.1499 O   0  0  0  0  0  0  0  0  0  0  0  0
    3.7548   -2.0505   -0.3069 C   0  0  2  0  0  0  0  0  0  0  0  0
    2.8454   -1.2763    0.6472 C   0  0  2  0  0  0  0  0  0  0  0  0
    3.2459   -3.4768   -0.5121 C   0  0  1  0  0  0  0  0  0  0  0  0
    1.3726   -1.4214    0.2610 C   0  0  1  0  0  0  0  0  0  0  0  0
    1.7615   -3.4731   -0.8491 C   0  0  0  0  0  0  0  0  0  0  0  0
   -0.5873   -0.2884    0.7674 C   0  0  0  0  0  0  0  0  0  0  0  0
   -0.7029    0.9618    0.2836 C   0  0  0  0  0  0  0  0  0  0  0  0
   -1.7828   -1.1655    0.7756 C   0  0  0  0  0  0  0  0  0  0  0  0
   -3.0242   -0.5822    0.2441 C   0  0  0  0  0  0  0  0  0  0  0  0
   -3.0067    0.7314   -0.2193 C   0  0  0  0  0  0  0  0  0  0  0  0
    0.4300    1.9036    0.2453 C   0  0  0  0  0  0  0  0  0  0  0  0
   -4.2046   -1.3286    0.2048 C   0  0  0  0  0  0  0  0  0  0  0  0
   -4.1716    1.3083   -0.7258 C   0  0  0  0  0  0  0  0  0  0  0  0
    1.2613    1.9506   -0.8741 C   0  0  0  0  0  0  0  0  0  0  0  0
    0.6718    2.7488    1.3287 C   0  0  0  0  0  0  0  0  0  0  0  0
   -5.3684   -0.7495   -0.3025 C   0  0  0  0  0  0  0  0  0  0  0  0
   -5.3523    0.5663   -0.7669 C   0  0  0  0  0  0  0  0  0  0  0  0
    2.3334    2.8420   -0.9102 C   0  0  0  0  0  0  0  0  0  0  0  0
    1.7440    3.6401    1.2928 C   0  0  0  0  0  0  0  0  0  0  0  0
    2.5748    3.6868    0.1733 C   0  0  0  0  0  0  0  0  0  0  0  0
    3.8465   -1.5358   -1.2716 H   0  0  0  0  0  0  0  0  0  0  0  0
    2.9970   -1.6145    1.6801 H   0  0  0  0  0  0  0  0  0  0  0  0
    3.4230   -4.0679    0.3948 H   0  0  0  0  0  0  0  0  0  0  0  0
    1.2056   -0.9399   -0.7125 H   0  0  0  0  0  0  0  0  0  0  0  0
    1.5689   -3.0157   -1.8279 H   0  0  0  0  0  0  0  0  0  0  0  0
    1.3921   -4.5025   -0.9150 H   0  0  0  0  0  0  0  0  0  0  0  0
    5.4154   -1.1823    0.2569 H   0  0  0  0  0  0  0  0  0  0  0  0
    4.1042    0.1842    0.9815 H   0  0  0  0  0  0  0  0  0  0  0  0
    4.8947   -4.0648   -1.3685 H   0  0  0  0  0  0  0  0  0  0  0  0
   -4.1546    2.3341   -1.0858 H   0  0  0  0  0  0  0  0  0  0  0  0
    1.0777    1.3010   -1.7270 H   0  0  0  0  0  0  0  0  0  0  0  0
    0.0327    2.7238    2.2081 H   0  0  0  0  0  0  0  0  0  0  0  0
   -6.2916   -1.3233   -0.3360 H   0  0  0  0  0  0  0  0  0  0  0  0
    1.9207    4.2925    2.1438 H   0  0  0  0  0  0  0  0  0  0  0  0
   -3.4109   -2.9127    0.9685 H   0  0  0  0  0  0  0  0  0  0  0  0
   -6.2992    2.0408   -1.5332 H   0  0  0  0  0  0  0  0  0  0  0  0
    3.8266    3.5498   -1.8617 H   0  0  0  0  0  0  0  0  0  0  0  0
    3.6301    5.0633    0.9833 H   0  0  0  0  0  0  0  0  0  0  0  0
  1 15  1  0  0  0  0
  1 16  1  0  0  0  0
  2 15  1  0  0  0  0
  2 17  1  0  0  0  0
  3 12  1  0  0  0  0
  3 38  1  0  0  0  0
  4 13  1  0  0  0  0
  4 39  1  0  0  0  0
  5 14  1  0  0  0  0
  5 40  1  0  0  0  0
  6 18  1  0  0  0  0
  6 21  1  0  0  0  0
  7 19  2  0  0  0  0
  8 23  1  0  0  0  0
  8 46  1  0  0  0  0
  9 28  1  0  0  0  0
  9 47  1  0  0  0  0
 10 29  1  0  0  0  0
 10 48  1  0  0  0  0
 11 31  1  0  0  0  0
 11 49  1  0  0  0  0
 12 13  1  0  0  0  0
 12 14  1  0  0  0  0
 12 32  1  0  0  0  0
 13 15  1  0  0  0  0
 13 33  1  0  0  0  0
 14 16  1  0  0  0  0
 14 34  1  0  0  0  0
 15 35  1  0  0  0  0
 16 36  1  0  0  0  0
 16 37  1  0  0  0  0
 17 18  2  0  0  0  0
 17 19  1  0  0  0  0
 18 22  1  0  0  0  0
 19 20  1  0  0  0  0
 20 21  1  0  0  0  0
 20 23  2  0  0  0  0
 21 24  2  0  0  0  0
 22 25  2  0  0  0  0
 22 26  1  0  0  0  0
 23 27  1  0  0  0  0
 24 28  1  0  0  0  0
 24 41  1  0  0  0  0
 25 29  1  0  0  0  0
 25 42  1  0  0  0  0
 26 30  2  0  0  0  0
 26 43  1  0  0  0  0
 27 28  2  0  0  0  0
 27 44  1  0  0  0  0
 29 31  2  0  0  0  0
 30 31  1  0  0  0  0
 30 45  1  0  0  0  0
M  END
> <PUBCHEM_COMPOUND_CID>
5320861

> <PUBCHEM_CONFORMER_RMSD>
0.8

> <PUBCHEM_CONFORMER_DIVERSEORDER>
1
9
33
39
50
47
6
45
37
49
30
27
35
51
26
34
38
11
16
13
46
32
44
2
36
43
41
5
48
10
28
14
12
25
31
15
29
18
40
42
23
8
22
19
17
24
7
21
20
4
3

> <PUBCHEM_MMFF94_PARTIAL_CHARGES>
43
1 -0.56
10 -0.53
11 -0.53
12 0.28
13 0.28
14 0.28
15 0.56
16 0.28
17 0.09
18 0.05
19 0.47
2 -0.36
20 0.09
21 0.08
22 0.03
23 0.08
24 -0.15
25 -0.15
26 -0.15
27 -0.15
28 0.08
29 0.08
3 -0.68
30 -0.15
31 0.08
38 0.4
39 0.4
4 -0.68
40 0.4
41 0.15
42 0.15
43 0.15
44 0.15
45 0.15
46 0.45
47 0.45
48 0.45
49 0.45
5 -0.68
6 -0.16
7 -0.57
8 -0.53
9 -0.53

> <PUBCHEM_EFFECTIVE_ROTOR_COUNT>
4.2

> <PUBCHEM_PHARMACOPHORE_FEATURES>
18
1 1 acceptor
1 10 donor
1 11 donor
1 2 acceptor
1 3 acceptor
1 3 donor
1 4 acceptor
1 4 donor
1 5 acceptor
1 5 donor
1 6 acceptor
1 7 acceptor
1 8 donor
1 9 donor
6 1 12 13 14 15 16 rings
6 20 21 23 24 27 28 rings
6 22 25 26 29 30 31 rings
6 6 17 18 19 20 21 rings

> <PUBCHEM_HEAVY_ATOM_COUNT>
31

> <PUBCHEM_ATOM_DEF_STEREO_COUNT>
4

> <PUBCHEM_ATOM_UDEF_STEREO_COUNT>
0

> <PUBCHEM_BOND_DEF_STEREO_COUNT>
0

> <PUBCHEM_BOND_UDEF_STEREO_COUNT>
0

> <PUBCHEM_ISOTOPIC_ATOM_COUNT>
0

> <PUBCHEM_COMPONENT_COUNT>
1

> <PUBCHEM_CACTVS_TAUTO_COUNT>
162

> <PUBCHEM_CONFORMER_ID>
0051309D00000001

> <PUBCHEM_MMFF94_ENERGY>
98.5468

> <PUBCHEM_FEATURE_SELFOVERLAP>
91.447

> <PUBCHEM_SHAPE_FINGERPRINT>
10190108 129 17330851617447244995
1100329 8 18124320398311978593
11045515 52 18046913679824572780
11115154 58 17485898902120026157
11488393 25 18337120071491926611
11963148 33 17540529554005062883
12422481 6 18044352028380691432
12788726 201 17686343062079578850
131258 43 17986693501776899942
13149001 5 18186807950283285275
13533116 47 18341891918562001985
13540713 4 18186802522156643203
13757389 114 17191528710597757372
138480 1 18411702054438881960
140371 6 18341055107648770955
14508225 48 18196656181396501878
14866123 147 17406556905395991625
15230672 131 17975975681842864776
15439362 3 18409724097218721109
15475509 8 17982171124346678145
15664445 248 18336819793575694450
15927050 60 17981605185206633012
167882 2 18337390555858264264
20028762 73 17116927362313254567
20600515 1 17977356383765466728
20642791 13 18126563410426598328
20691752 17 16516232033618637393
20775438 99 18195785570526137567
21120745 212 17840323120625927860
21304303 282 17194571510306170068
22149856 69 18188783859732584427
22393880 68 18197787810747311901
23559900 14 18410285900563112995
24771750 20 18191036783488245452
255183 313 17044029745111030834
3298306 158 18195250137952712908
38695281 34 18196931295774456632
4017518 198 18126288773913945116
4280585 95 18191017911592025778
460360 51 18338252483202354809
46194498 28 18259700091053099693
495365 180 18198613518141857193
5081480 168 18114451276308243533
5265222 85 17614009912321723492
59755656 215 18334855077834509412
6443956 14 18411980222137858840
6669772 16 17984428696543954508
9709674 26 18408322203124809907

> <PUBCHEM_SHAPE_MULTIPOLES>
573.4
10.34
5.7
1.23
12.7
1.24
0.18
-2.87
3.26
-9.39
0.68
-0.38
0.31
1.44

> <PUBCHEM_SHAPE_SELFOVERLAP>
1269.282

> <PUBCHEM_SHAPE_VOLUME>
303.1

> <PUBCHEM_COORDINATE_TYPE>
2
5
10

$$$$
