5354133
  -OEChem-11202007362D

 58 57  0     1  0  0  0  0  0999 V2000
    7.1962   -4.3450    0.0000 O   0  0  0  0  0  0  0  0  0  0  0  0
   13.2583    4.1550    0.0000 O   0  0  0  0  0  0  0  0  0  0  0  0
   14.1244    2.6550    0.0000 O   0  0  0  0  0  0  0  0  0  0  0  0
    6.3301   -2.8450    0.0000 C   0  0  0  0  0  0  0  0  0  0  0  0
    5.4641   -3.3450    0.0000 C   0  0  0  0  0  0  0  0  0  0  0  0
    7.1962   -3.3450    0.0000 C   0  0  2  0  0  0  0  0  0  0  0  0
    4.5981   -2.8450    0.0000 C   0  0  0  0  0  0  0  0  0  0  0  0
   10.6603   -0.3450    0.0000 C   0  0  0  0  0  0  0  0  0  0  0  0
   11.5263    0.1550    0.0000 C   0  0  0  0  0  0  0  0  0  0  0  0
   10.6603   -1.3450    0.0000 C   0  0  0  0  0  0  0  0  0  0  0  0
    8.0622   -2.8450    0.0000 C   0  0  0  0  0  0  0  0  0  0  0  0
    3.7320   -3.3450    0.0000 C   0  0  0  0  0  0  0  0  0  0  0  0
   11.5263    1.1550    0.0000 C   0  0  0  0  0  0  0  0  0  0  0  0
    9.7942   -1.8450    0.0000 C   0  0  0  0  0  0  0  0  0  0  0  0
   12.3923    1.6550    0.0000 C   0  0  0  0  0  0  0  0  0  0  0  0
    2.8660   -2.8450    0.0000 C   0  0  0  0  0  0  0  0  0  0  0  0
    8.9282   -3.3450    0.0000 C   0  0  0  0  0  0  0  0  0  0  0  0
    9.7942   -2.8450    0.0000 C   0  0  0  0  0  0  0  0  0  0  0  0
   12.3923    2.6550    0.0000 C   0  0  0  0  0  0  0  0  0  0  0  0
    2.0000   -3.3450    0.0000 C   0  0  0  0  0  0  0  0  0  0  0  0
   13.2583    3.1550    0.0000 C   0  0  0  0  0  0  0  0  0  0  0  0
   14.1244    4.6550    0.0000 C   0  0  0  0  0  0  0  0  0  0  0  0
    6.7287   -2.3700    0.0000 H   0  0  0  0  0  0  0  0  0  0  0  0
    5.9316   -2.3700    0.0000 H   0  0  0  0  0  0  0  0  0  0  0  0
    5.0656   -3.8200    0.0000 H   0  0  0  0  0  0  0  0  0  0  0  0
    5.8626   -3.8200    0.0000 H   0  0  0  0  0  0  0  0  0  0  0  0
    6.6592   -3.6550    0.0000 H   0  0  0  0  0  0  0  0  0  0  0  0
    4.9966   -2.3700    0.0000 H   0  0  0  0  0  0  0  0  0  0  0  0
    4.1996   -2.3700    0.0000 H   0  0  0  0  0  0  0  0  0  0  0  0
   10.4482    0.2376    0.0000 H   0  0  0  0  0  0  0  0  0  0  0  0
   10.0497   -0.4527    0.0000 H   0  0  0  0  0  0  0  0  0  0  0  0
   11.7383   -0.4276    0.0000 H   0  0  0  0  0  0  0  0  0  0  0  0
   12.1369    0.2627    0.0000 H   0  0  0  0  0  0  0  0  0  0  0  0
   10.8723   -1.9276    0.0000 H   0  0  0  0  0  0  0  0  0  0  0  0
   11.2708   -1.2373    0.0000 H   0  0  0  0  0  0  0  0  0  0  0  0
    8.4607   -2.3700    0.0000 H   0  0  0  0  0  0  0  0  0  0  0  0
    7.6636   -2.3700    0.0000 H   0  0  0  0  0  0  0  0  0  0  0  0
    3.3335   -3.8200    0.0000 H   0  0  0  0  0  0  0  0  0  0  0  0
    4.1306   -3.8200    0.0000 H   0  0  0  0  0  0  0  0  0  0  0  0
   11.3142    1.7376    0.0000 H   0  0  0  0  0  0  0  0  0  0  0  0
   10.9157    1.0473    0.0000 H   0  0  0  0  0  0  0  0  0  0  0  0
    9.5822   -1.2624    0.0000 H   0  0  0  0  0  0  0  0  0  0  0  0
    9.1836   -1.9527    0.0000 H   0  0  0  0  0  0  0  0  0  0  0  0
   12.6044    1.0724    0.0000 H   0  0  0  0  0  0  0  0  0  0  0  0
   13.0029    1.7627    0.0000 H   0  0  0  0  0  0  0  0  0  0  0  0
    3.2646   -2.3700    0.0000 H   0  0  0  0  0  0  0  0  0  0  0  0
    2.4675   -2.3700    0.0000 H   0  0  0  0  0  0  0  0  0  0  0  0
    8.9282   -3.9650    0.0000 H   0  0  0  0  0  0  0  0  0  0  0  0
   10.3312   -3.1550    0.0000 H   0  0  0  0  0  0  0  0  0  0  0  0
   12.1803    3.2376    0.0000 H   0  0  0  0  0  0  0  0  0  0  0  0
   11.7817    2.5473    0.0000 H   0  0  0  0  0  0  0  0  0  0  0  0
    6.6592   -4.6550    0.0000 H   0  0  0  0  0  0  0  0  0  0  0  0
    1.6900   -2.8081    0.0000 H   0  0  0  0  0  0  0  0  0  0  0  0
    1.4631   -3.6550    0.0000 H   0  0  0  0  0  0  0  0  0  0  0  0
    2.3100   -3.8819    0.0000 H   0  0  0  0  0  0  0  0  0  0  0  0
   14.4344    4.1181    0.0000 H   0  0  0  0  0  0  0  0  0  0  0  0
   14.6613    4.9650    0.0000 H   0  0  0  0  0  0  0  0  0  0  0  0
   13.8144    5.1919    0.0000 H   0  0  0  0  0  0  0  0  0  0  0  0
  6  1  1  6  0  0  0
  1 52  1  0  0  0  0
  2 21  1  0  0  0  0
  2 22  1  0  0  0  0
  3 21  2  0  0  0  0
  4  5  1  0  0  0  0
  4  6  1  0  0  0  0
  4 23  1  0  0  0  0
  4 24  1  0  0  0  0
  5  7  1  0  0  0  0
  5 25  1  0  0  0  0
  5 26  1  0  0  0  0
  6 11  1  0  0  0  0
  6 27  1  0  0  0  0
  7 12  1  0  0  0  0
  7 28  1  0  0  0  0
  7 29  1  0  0  0  0
  8  9  1  0  0  0  0
  8 10  1  0  0  0  0
  8 30  1  0  0  0  0
  8 31  1  0  0  0  0
  9 13  1  0  0  0  0
  9 32  1  0  0  0  0
  9 33  1  0  0  0  0
 10 14  1  0  0  0  0
 10 34  1  0  0  0  0
 10 35  1  0  0  0  0
 11 17  1  0  0  0  0
 11 36  1  0  0  0  0
 11 37  1  0  0  0  0
 12 16  1  0  0  0  0
 12 38  1  0  0  0  0
 12 39  1  0  0  0  0
 13 15  1  0  0  0  0
 13 40  1  0  0  0  0
 13 41  1  0  0  0  0
 14 18  1  0  0  0  0
 14 42  1  0  0  0  0
 14 43  1  0  0  0  0
 15 19  1  0  0  0  0
 15 44  1  0  0  0  0
 15 45  1  0  0  0  0
 16 20  1  0  0  0  0
 16 46  1  0  0  0  0
 16 47  1  0  0  0  0
 17 18  2  0  0  0  0
 17 48  1  0  0  0  0
 18 49  1  0  0  0  0
 19 21  1  0  0  0  0
 19 50  1  0  0  0  0
 19 51  1  0  0  0  0
 20 53  1  0  0  0  0
 20 54  1  0  0  0  0
 20 55  1  0  0  0  0
 22 56  1  0  0  0  0
 22 57  1  0  0  0  0
 22 58  1  0  0  0  0
M  END
> <PUBCHEM_COMPOUND_CID>
5354133

> <PUBCHEM_COMPOUND_CANONICALIZED>
1

> <PUBCHEM_CACTVS_COMPLEXITY>
274

> <PUBCHEM_CACTVS_HBOND_ACCEPTOR>
3

> <PUBCHEM_CACTVS_HBOND_DONOR>
1

> <PUBCHEM_CACTVS_ROTATABLE_BOND>
16

> <PUBCHEM_CACTVS_SUBSKEYS>
AAADcfB4MAAAAAAAAAAAAAAAAAAAAAAAAAAAAAAAAAAAAAAAAAAAGgAACAAACBSggAICCAAABgCIACDSCAAAAAAgAAAICAEAAAgAEBIAAQAAQAAEwAAIAAOIyKCAAAAAAAAAAAAAAAAAAAAAAAAAAAAAAA==

> <PUBCHEM_IUPAC_OPENEYE_NAME>
methyl (Z,12R)-12-hydroxyoctadec-9-enoate

> <PUBCHEM_IUPAC_CAS_NAME>
(Z,12R)-12-hydroxy-9-octadecenoic acid methyl ester

> <PUBCHEM_IUPAC_NAME_MARKUP>
methyl (<I>Z</I>,12<I>R</I>)-12-hydroxyoctadec-9-enoate

> <PUBCHEM_IUPAC_NAME>
methyl (Z,12R)-12-hydroxyoctadec-9-enoate

> <PUBCHEM_IUPAC_SYSTEMATIC_NAME>
methyl (Z,12R)-12-oxidanyloctadec-9-enoate

> <PUBCHEM_IUPAC_TRADITIONAL_NAME>
(Z,12R)-12-hydroxyoctadec-9-enoic acid methyl ester

> <PUBCHEM_IUPAC_INCHI>
InChI=1S/C19H36O3/c1-3-4-5-12-15-18(20)16-13-10-8-6-7-9-11-14-17-19(21)22-2/h10,13,18,20H,3-9,11-12,14-17H2,1-2H3/b13-10-/t18-/m1/s1

> <PUBCHEM_IUPAC_INCHIKEY>
XKGDWZQXVZSXAO-ADYSOMBNSA-N

> <PUBCHEM_XLOGP3_AA>
6.1

> <PUBCHEM_EXACT_MASS>
312.266445

> <PUBCHEM_MOLECULAR_FORMULA>
C19H36O3

> <PUBCHEM_MOLECULAR_WEIGHT>
312.5

> <PUBCHEM_OPENEYE_CAN_SMILES>
CCCCCCC(CC=CCCCCCCCC(=O)OC)O

> <PUBCHEM_OPENEYE_ISO_SMILES>
CCCCCC[C@H](C/C=C\CCCCCCCC(=O)OC)O

> <PUBCHEM_CACTVS_TPSA>
46.5

> <PUBCHEM_MONOISOTOPIC_WEIGHT>
312.266445

> <PUBCHEM_TOTAL_CHARGE>
0

> <PUBCHEM_HEAVY_ATOM_COUNT>
22

> <PUBCHEM_ATOM_DEF_STEREO_COUNT>
1

> <PUBCHEM_ATOM_UDEF_STEREO_COUNT>
0

> <PUBCHEM_BOND_DEF_STEREO_COUNT>
1

> <PUBCHEM_BOND_UDEF_STEREO_COUNT>
0

> <PUBCHEM_ISOTOPIC_ATOM_COUNT>
0

> <PUBCHEM_COMPONENT_COUNT>
1

> <PUBCHEM_CACTVS_TAUTO_COUNT>
-1

> <PUBCHEM_COORDINATE_TYPE>
1
5
255

> <PUBCHEM_BONDANNOTATIONS>
6  1  6

$$$$
