146158737
  -OEChem-11202007192D

 79 82  0     1  0  0  0  0  0999 V2000
    5.6489   -4.0372    0.0000 O   0  0  0  0  0  0  0  0  0  0  0  0
    2.0000   -3.0203    0.0000 O   0  0  0  0  0  0  0  0  0  0  0  0
    7.3931    0.0321    0.0000 C   0  0  1  0  0  0  0  0  0  0  0  0
    7.3931   -0.9679    0.0000 C   0  0  3  0  0  0  0  0  0  0  0  0
    6.5271   -1.4679    0.0000 C   0  0  3  0  0  0  0  0  0  0  0  0
    5.6610   -0.9679    0.0000 C   0  0  3  0  0  0  0  0  0  0  0  0
    8.3393    0.3368    0.0000 C   0  0  3  0  0  0  0  0  0  0  0  0
    6.5271    0.5321    0.0000 C   0  0  0  0  0  0  0  0  0  0  0  0
    8.3393   -1.2727    0.0000 C   0  0  0  0  0  0  0  0  0  0  0  0
    4.7510   -1.4748    0.0000 C   0  0  2  0  0  0  0  0  0  0  0  0
    5.6610    0.0321    0.0000 C   0  0  0  0  0  0  0  0  0  0  0  0
    8.9229   -0.4679    0.0000 C   0  0  0  0  0  0  0  0  0  0  0  0
    6.5431   -2.5094    0.0000 C   0  0  0  0  0  0  0  0  0  0  0  0
    8.6500    1.2873    0.0000 C   0  0  3  0  0  0  0  0  0  0  0  0
    7.3931    1.0321    0.0000 C   0  0  0  0  0  0  0  0  0  0  0  0
    4.7430   -2.5164    0.0000 C   0  0  0  0  0  0  0  0  0  0  0  0
    5.6451   -3.0372    0.0000 C   0  0  3  0  0  0  0  0  0  0  0  0
    3.8242   -0.9107    0.0000 C   0  0  0  0  0  0  0  0  0  0  0  0
    4.7587   -0.4748    0.0000 C   0  0  0  0  0  0  0  0  0  0  0  0
    9.6285    1.4936    0.0000 C   0  0  0  0  0  0  0  0  0  0  0  0
    7.9821    2.0316    0.0000 C   0  0  0  0  0  0  0  0  0  0  0  0
    2.8763   -1.4386    0.0000 C   0  0  0  0  0  0  0  0  0  0  0  0
    3.8076   -3.0661    0.0000 C   0  0  0  0  0  0  0  0  0  0  0  0
    2.8680   -2.5236    0.0000 C   0  0  0  0  0  0  0  0  0  0  0  0
    9.9391    2.4441    0.0000 C   0  0  0  0  0  0  0  0  0  0  0  0
   10.9176    2.6503    0.0000 C   0  0  3  0  0  0  0  0  0  0  0  0
   11.2283    3.6008    0.0000 C   0  0  0  0  0  0  0  0  0  0  0  0
   11.5855    1.9060    0.0000 C   0  0  0  0  0  0  0  0  0  0  0  0
   12.2068    3.8070    0.0000 C   0  0  0  0  0  0  0  0  0  0  0  0
   10.5605    4.3451    0.0000 C   0  0  0  0  0  0  0  0  0  0  0  0
   12.5640    2.1122    0.0000 C   0  0  0  0  0  0  0  0  0  0  0  0
    7.4587   -1.5844    0.0000 H   0  0  0  0  0  0  0  0  0  0  0  0
    7.0664   -1.7738    0.0000 H   0  0  0  0  0  0  0  0  0  0  0  0
    6.1980   -0.6579    0.0000 H   0  0  0  0  0  0  0  0  0  0  0  0
    8.9518    0.4330    0.0000 H   0  0  0  0  0  0  0  0  0  0  0  0
    6.9256    1.0070    0.0000 H   0  0  0  0  0  0  0  0  0  0  0  0
    6.1285    1.0070    0.0000 H   0  0  0  0  0  0  0  0  0  0  0  0
    8.0883   -1.8396    0.0000 H   0  0  0  0  0  0  0  0  0  0  0  0
    8.8767   -1.5819    0.0000 H   0  0  0  0  0  0  0  0  0  0  0  0
    5.4490    0.6147    0.0000 H   0  0  0  0  0  0  0  0  0  0  0  0
    5.0504   -0.0756    0.0000 H   0  0  0  0  0  0  0  0  0  0  0  0
    9.3838   -0.8827    0.0000 H   0  0  0  0  0  0  0  0  0  0  0  0
    9.3838   -0.0532    0.0000 H   0  0  0  0  0  0  0  0  0  0  0  0
    6.7612   -3.0898    0.0000 H   0  0  0  0  0  0  0  0  0  0  0  0
    7.1523   -2.3939    0.0000 H   0  0  0  0  0  0  0  0  0  0  0  0
    8.0433    1.1595    0.0000 H   0  0  0  0  0  0  0  0  0  0  0  0
    8.0131    1.0321    0.0000 H   0  0  0  0  0  0  0  0  0  0  0  0
    7.3931    1.6521    0.0000 H   0  0  0  0  0  0  0  0  0  0  0  0
    6.7731    1.0321    0.0000 H   0  0  0  0  0  0  0  0  0  0  0  0
    5.1087   -3.3482    0.0000 H   0  0  0  0  0  0  0  0  0  0  0  0
    4.2324   -0.4440    0.0000 H   0  0  0  0  0  0  0  0  0  0  0  0
    3.4343   -0.4287    0.0000 H   0  0  0  0  0  0  0  0  0  0  0  0
    5.3787   -0.4796    0.0000 H   0  0  0  0  0  0  0  0  0  0  0  0
    4.7635    0.1452    0.0000 H   0  0  0  0  0  0  0  0  0  0  0  0
    4.1388   -0.4700    0.0000 H   0  0  0  0  0  0  0  0  0  0  0  0
    9.6490    0.8739    0.0000 H   0  0  0  0  0  0  0  0  0  0  0  0
   10.2423    1.4062    0.0000 H   0  0  0  0  0  0  0  0  0  0  0  0
    8.4436    2.4457    0.0000 H   0  0  0  0  0  0  0  0  0  0  0  0
    7.5681    2.4931    0.0000 H   0  0  0  0  0  0  0  0  0  0  0  0
    7.5207    1.6176    0.0000 H   0  0  0  0  0  0  0  0  0  0  0  0
    2.6718   -0.8534    0.0000 H   0  0  0  0  0  0  0  0  0  0  0  0
    2.2647   -1.5400    0.0000 H   0  0  0  0  0  0  0  0  0  0  0  0
    3.8100   -3.6861    0.0000 H   0  0  0  0  0  0  0  0  0  0  0  0
    9.9186    3.0637    0.0000 H   0  0  0  0  0  0  0  0  0  0  0  0
    9.3253    2.5314    0.0000 H   0  0  0  0  0  0  0  0  0  0  0  0
    6.1871   -4.3451    0.0000 H   0  0  0  0  0  0  0  0  0  0  0  0
   10.7250    2.0610    0.0000 H   0  0  0  0  0  0  0  0  0  0  0  0
   11.4209    4.1901    0.0000 H   0  0  0  0  0  0  0  0  0  0  0  0
   11.0591    1.5783    0.0000 H   0  0  0  0  0  0  0  0  0  0  0  0
   11.8167    1.3307    0.0000 H   0  0  0  0  0  0  0  0  0  0  0  0
   12.3347    3.2003    0.0000 H   0  0  0  0  0  0  0  0  0  0  0  0
   12.8135    3.9349    0.0000 H   0  0  0  0  0  0  0  0  0  0  0  0
   12.0790    4.4137    0.0000 H   0  0  0  0  0  0  0  0  0  0  0  0
   11.0219    4.7592    0.0000 H   0  0  0  0  0  0  0  0  0  0  0  0
   10.1464    4.8066    0.0000 H   0  0  0  0  0  0  0  0  0  0  0  0
   10.0990    3.9310    0.0000 H   0  0  0  0  0  0  0  0  0  0  0  0
   12.6918    1.5055    0.0000 H   0  0  0  0  0  0  0  0  0  0  0  0
   13.1707    2.2401    0.0000 H   0  0  0  0  0  0  0  0  0  0  0  0
   12.4361    2.7189    0.0000 H   0  0  0  0  0  0  0  0  0  0  0  0
  1 17  1  0  0  0  0
  1 66  1  0  0  0  0
  2 24  2  0  0  0  0
  3  4  1  0  0  0  0
  3  7  1  0  0  0  0
  3  8  1  0  0  0  0
  3 15  1  1  0  0  0
  4  5  1  0  0  0  0
  4  9  1  0  0  0  0
  4 32  1  0  0  0  0
  5  6  1  0  0  0  0
  5 13  1  0  0  0  0
  5 33  1  0  0  0  0
  6 10  1  0  0  0  0
  6 11  1  0  0  0  0
  6 34  1  0  0  0  0
  7 12  1  0  0  0  0
  7 14  1  0  0  0  0
  7 35  1  0  0  0  0
  8 11  1  0  0  0  0
  8 36  1  0  0  0  0
  8 37  1  0  0  0  0
  9 12  1  0  0  0  0
  9 38  1  0  0  0  0
  9 39  1  0  0  0  0
 10 16  1  0  0  0  0
 10 18  1  0  0  0  0
 10 19  1  1  0  0  0
 11 40  1  0  0  0  0
 11 41  1  0  0  0  0
 12 42  1  0  0  0  0
 12 43  1  0  0  0  0
 13 17  1  0  0  0  0
 13 44  1  0  0  0  0
 13 45  1  0  0  0  0
 14 20  1  0  0  0  0
 14 21  1  0  0  0  0
 14 46  1  0  0  0  0
 15 47  1  0  0  0  0
 15 48  1  0  0  0  0
 15 49  1  0  0  0  0
 16 17  1  0  0  0  0
 16 23  2  0  0  0  0
 17 50  1  0  0  0  0
 18 22  1  0  0  0  0
 18 51  1  0  0  0  0
 18 52  1  0  0  0  0
 19 53  1  0  0  0  0
 19 54  1  0  0  0  0
 19 55  1  0  0  0  0
 20 25  1  0  0  0  0
 20 56  1  0  0  0  0
 20 57  1  0  0  0  0
 21 58  1  0  0  0  0
 21 59  1  0  0  0  0
 21 60  1  0  0  0  0
 22 24  1  0  0  0  0
 22 61  1  0  0  0  0
 22 62  1  0  0  0  0
 23 24  1  0  0  0  0
 23 63  1  0  0  0  0
 25 26  1  0  0  0  0
 25 64  1  0  0  0  0
 25 65  1  0  0  0  0
 26 27  1  0  0  0  0
 26 28  1  0  0  0  0
 26 67  1  0  0  0  0
 27 29  1  0  0  0  0
 27 30  1  0  0  0  0
 27 68  1  0  0  0  0
 28 31  1  0  0  0  0
 28 69  1  0  0  0  0
 28 70  1  0  0  0  0
 29 71  1  0  0  0  0
 29 72  1  0  0  0  0
 29 73  1  0  0  0  0
 30 74  1  0  0  0  0
 30 75  1  0  0  0  0
 30 76  1  0  0  0  0
 31 77  1  0  0  0  0
 31 78  1  0  0  0  0
 31 79  1  0  0  0  0
M  END
> <PUBCHEM_COMPOUND_CID>
146158737

> <PUBCHEM_COMPOUND_CANONICALIZED>
1

> <PUBCHEM_CACTVS_COMPLEXITY>
708

> <PUBCHEM_CACTVS_HBOND_ACCEPTOR>
2

> <PUBCHEM_CACTVS_HBOND_DONOR>
1

> <PUBCHEM_CACTVS_ROTATABLE_BOND>
6

> <PUBCHEM_CACTVS_SUBSKEYS>
AAADcfB4MAAAAAAAAAAAAAAAAAAAAYAAAAAwYIAAAAAAAGDAAAAAGgAACAAADxSggAICAAAAAgCIAqBSAAAAAAAgAAAACAEAAEgAFBIAAQAAUAAEgAAIEQOIyPCPgAAAAAAAAADAAAYAACAAAQAACAAAAA==

> <PUBCHEM_IUPAC_OPENEYE_NAME>
(10R,13R)-17-(4-ethyl-1,5-dimethyl-hexyl)-6-hydroxy-10,13-dimethyl-1,2,6,7,8,9,11,12,14,15,16,17-dodecahydrocyclopenta[a]phenanthren-3-one

> <PUBCHEM_IUPAC_CAS_NAME>
(10R,13R)-17-(5-ethyl-6-methylheptan-2-yl)-6-hydroxy-10,13-dimethyl-1,2,6,7,8,9,11,12,14,15,16,17-dodecahydrocyclopenta[a]phenanthren-3-one

> <PUBCHEM_IUPAC_NAME_MARKUP>
(10<I>R</I>,13<I>R</I>)-17-(5-ethyl-6-methylheptan-2-yl)-6-hydroxy-10,13-dimethyl-1,2,6,7,8,9,11,12,14,15,16,17-dodecahydrocyclopenta[a]phenanthren-3-one

> <PUBCHEM_IUPAC_NAME>
(10R,13R)-17-(5-ethyl-6-methylheptan-2-yl)-6-hydroxy-10,13-dimethyl-1,2,6,7,8,9,11,12,14,15,16,17-dodecahydrocyclopenta[a]phenanthren-3-one

> <PUBCHEM_IUPAC_SYSTEMATIC_NAME>
(10R,13R)-17-(5-ethyl-6-methyl-heptan-2-yl)-10,13-dimethyl-6-oxidanyl-1,2,6,7,8,9,11,12,14,15,16,17-dodecahydrocyclopenta[a]phenanthren-3-one

> <PUBCHEM_IUPAC_TRADITIONAL_NAME>
(10R,13R)-17-(4-ethyl-1,5-dimethyl-hexyl)-6-hydroxy-10,13-dimethyl-1,2,6,7,8,9,11,12,14,15,16,17-dodecahydrocyclopenta[a]phenanthren-3-one

> <PUBCHEM_IUPAC_INCHI>
InChI=1S/C29H48O2/c1-7-20(18(2)3)9-8-19(4)23-10-11-24-22-17-27(31)26-16-21(30)12-14-29(26,6)25(22)13-15-28(23,24)5/h16,18-20,22-25,27,31H,7-15,17H2,1-6H3/t19?,20?,22?,23?,24?,25?,27?,28-,29-/m1/s1

> <PUBCHEM_IUPAC_INCHIKEY>
IWNCBADONFSAAW-BYNGLDFVSA-N

> <PUBCHEM_XLOGP3_AA>
8

> <PUBCHEM_EXACT_MASS>
428.365431

> <PUBCHEM_MOLECULAR_FORMULA>
C29H48O2

> <PUBCHEM_MOLECULAR_WEIGHT>
428.7

> <PUBCHEM_OPENEYE_CAN_SMILES>
CCC(CCC(C)C1CCC2C1(CCC3C2CC(C4=CC(=O)CCC34C)O)C)C(C)C

> <PUBCHEM_OPENEYE_ISO_SMILES>
CCC(CCC(C)C1CCC2[C@@]1(CCC3C2CC(C4=CC(=O)CC[C@]34C)O)C)C(C)C

> <PUBCHEM_CACTVS_TPSA>
37.3

> <PUBCHEM_MONOISOTOPIC_WEIGHT>
428.365431

> <PUBCHEM_TOTAL_CHARGE>
0

> <PUBCHEM_HEAVY_ATOM_COUNT>
31

> <PUBCHEM_ATOM_DEF_STEREO_COUNT>
2

> <PUBCHEM_ATOM_UDEF_STEREO_COUNT>
7

> <PUBCHEM_BOND_DEF_STEREO_COUNT>
0

> <PUBCHEM_BOND_UDEF_STEREO_COUNT>
0

> <PUBCHEM_ISOTOPIC_ATOM_COUNT>
0

> <PUBCHEM_COMPONENT_COUNT>
1

> <PUBCHEM_CACTVS_TAUTO_COUNT>
-1

> <PUBCHEM_COORDINATE_TYPE>
1
5
255

> <PUBCHEM_BONDANNOTATIONS>
17  1  3
10  19  5
14  21  3
26  28  3
3  15  5
4  9  3
5  13  3
6  11  3
7  12  3

$$$$
