6476333
  -OEChem-09302015253D

 80 83  0     1  0  0  0  0  0999 V2000
   -3.8978    0.3688    0.1397 O   0  0  0  0  0  0  0  0  0  0  0  0
   -0.6729   -1.8363   -1.1269 O   0  0  0  0  0  0  0  0  0  0  0  0
   -6.1804    0.2844   -0.5036 O   0  0  0  0  0  0  0  0  0  0  0  0
   -3.0200    0.5533   -2.6082 O   0  0  0  0  0  0  0  0  0  0  0  0
   -0.8070   -3.2379    0.7337 O   0  0  0  0  0  0  0  0  0  0  0  0
   -3.4565   -2.3509    1.1833 O   0  0  0  0  0  0  0  0  0  0  0  0
   -6.8125    0.1411    2.2964 O   0  0  0  0  0  0  0  0  0  0  0  0
   -6.2945    2.8350    2.7649 O   0  0  0  0  0  0  0  0  0  0  0  0
   -6.7600    3.8667    0.1448 O   0  0  0  0  0  0  0  0  0  0  0  0
    0.4704    0.3812   -2.3375 O   0  0  0  0  0  0  0  0  0  0  0  0
    2.3839   -0.8325   -2.7890 O   0  0  0  0  0  0  0  0  0  0  0  0
    5.1085   -3.1144   -0.6499 O   0  0  0  0  0  0  0  0  0  0  0  0
    5.1092   -1.1110    1.2771 O   0  0  0  0  0  0  0  0  0  0  0  0
    7.9704    3.2679   -0.0346 O   0  0  0  0  0  0  0  0  0  0  0  0
    6.6434    4.9040    1.7775 O   0  0  0  0  0  0  0  0  0  0  0  0
   -3.2457   -0.6935   -0.5579 C   0  0  1  0  0  0  0  0  0  0  0  0
   -2.2775   -0.0733   -1.5655 C   0  0  1  0  0  0  0  0  0  0  0  0
   -2.5080   -1.5826    0.4433 C   0  0  2  0  0  0  0  0  0  0  0  0
   -1.3623   -1.1419   -2.1678 C   0  0  1  0  0  0  0  0  0  0  0  0
   -5.2204    0.0065    0.5215 C   0  0  2  0  0  0  0  0  0  0  0  0
   -5.5966    0.7193    1.8191 C   0  0  1  0  0  0  0  0  0  0  0  0
   -1.5579   -2.5482   -0.2651 C   0  0  1  0  0  0  0  0  0  0  0  0
   -5.7895    2.2182    1.5828 C   0  0  1  0  0  0  0  0  0  0  0  0
   -6.7611    2.4698    0.4290 C   0  0  2  0  0  0  0  0  0  0  0  0
   -6.3260    1.6748   -0.8099 C   0  0  2  0  0  0  0  0  0  0  0  0
   -0.3103   -0.5310   -3.0881 C   0  0  0  0  0  0  0  0  0  0  0  0
   -7.3442    1.7777   -1.9420 C   0  0  0  0  0  0  0  0  0  0  0  0
   -0.2521   -4.4401    0.2234 C   0  0  0  0  0  0  0  0  0  0  0  0
    0.9004   -4.8940    1.1124 C   0  0  0  0  0  0  0  0  0  0  0  0
    1.8088    0.1106   -2.2691 C   0  0  0  0  0  0  0  0  0  0  0  0
    2.0243   -3.8872    1.1536 C   0  0  0  0  0  0  0  0  0  0  0  0
    3.0622   -3.9619    0.2247 C   0  0  0  0  0  0  0  0  0  0  0  0
    2.4516    1.1626   -1.4491 C   0  0  0  0  0  0  0  0  0  0  0  0
    2.0247   -2.8818    2.1206 C   0  0  0  0  0  0  0  0  0  0  0  0
    4.1006   -3.0311    0.2627 C   0  0  0  0  0  0  0  0  0  0  0  0
    3.0632   -1.9513    2.1587 C   0  0  0  0  0  0  0  0  0  0  0  0
    4.1011   -2.0258    1.2297 C   0  0  0  0  0  0  0  0  0  0  0  0
    3.7739    1.1159   -1.2330 C   0  0  0  0  0  0  0  0  0  0  0  0
    4.5285    2.1067   -0.4456 C   0  0  0  0  0  0  0  0  0  0  0  0
    5.9085    2.2245   -0.6109 C   0  0  0  0  0  0  0  0  0  0  0  0
    3.8628    2.9270    0.4652 C   0  0  0  0  0  0  0  0  0  0  0  0
    6.6229    3.1627    0.1342 C   0  0  0  0  0  0  0  0  0  0  0  0
    4.5771    3.8651    1.2105 C   0  0  0  0  0  0  0  0  0  0  0  0
    5.9571    3.9830    1.0450 C   0  0  0  0  0  0  0  0  0  0  0  0
   -3.9958   -1.2764   -1.1119 H   0  0  0  0  0  0  0  0  0  0  0  0
   -1.6980    0.7093   -1.0616 H   0  0  0  0  0  0  0  0  0  0  0  0
   -1.9635   -0.9664    1.1687 H   0  0  0  0  0  0  0  0  0  0  0  0
   -1.9458   -1.8602   -2.7589 H   0  0  0  0  0  0  0  0  0  0  0  0
   -5.3093   -1.0679    0.6991 H   0  0  0  0  0  0  0  0  0  0  0  0
   -4.8345    0.5674    2.5921 H   0  0  0  0  0  0  0  0  0  0  0  0
   -2.1354   -3.2812   -0.8466 H   0  0  0  0  0  0  0  0  0  0  0  0
   -4.8249    2.6930    1.3640 H   0  0  0  0  0  0  0  0  0  0  0  0
   -7.7788    2.1977    0.7329 H   0  0  0  0  0  0  0  0  0  0  0  0
   -5.3712    2.0582   -1.1927 H   0  0  0  0  0  0  0  0  0  0  0  0
   -0.7823    0.0200   -3.9084 H   0  0  0  0  0  0  0  0  0  0  0  0
    0.2861   -1.3332   -3.5371 H   0  0  0  0  0  0  0  0  0  0  0  0
   -7.0165    1.1857   -2.8036 H   0  0  0  0  0  0  0  0  0  0  0  0
   -7.4830    2.8136   -2.2653 H   0  0  0  0  0  0  0  0  0  0  0  0
   -8.3141    1.3726   -1.6329 H   0  0  0  0  0  0  0  0  0  0  0  0
   -3.5432   -0.1312   -3.0591 H   0  0  0  0  0  0  0  0  0  0  0  0
   -3.9150   -2.9430    0.5627 H   0  0  0  0  0  0  0  0  0  0  0  0
   -6.6345   -0.7931    2.4992 H   0  0  0  0  0  0  0  0  0  0  0  0
   -5.6633    2.6530    3.4819 H   0  0  0  0  0  0  0  0  0  0  0  0
   -5.8682    4.1125   -0.1553 H   0  0  0  0  0  0  0  0  0  0  0  0
    0.1129   -4.2973   -0.8017 H   0  0  0  0  0  0  0  0  0  0  0  0
   -1.0331   -5.2085    0.2064 H   0  0  0  0  0  0  0  0  0  0  0  0
    1.2821   -5.8609    0.7627 H   0  0  0  0  0  0  0  0  0  0  0  0
    0.5362   -5.0575    2.1348 H   0  0  0  0  0  0  0  0  0  0  0  0
    3.0589   -4.7449   -0.5298 H   0  0  0  0  0  0  0  0  0  0  0  0
    1.2222   -2.8120    2.8501 H   0  0  0  0  0  0  0  0  0  0  0  0
    1.8115    1.9503   -1.0694 H   0  0  0  0  0  0  0  0  0  0  0  0
    3.0508   -1.1727    2.9166 H   0  0  0  0  0  0  0  0  0  0  0  0
    4.3699    0.3129   -1.6608 H   0  0  0  0  0  0  0  0  0  0  0  0
    4.9404   -3.8689   -1.2401 H   0  0  0  0  0  0  0  0  0  0  0  0
    4.9348   -0.4839    1.9998 H   0  0  0  0  0  0  0  0  0  0  0  0
    6.4312    1.5868   -1.3206 H   0  0  0  0  0  0  0  0  0  0  0  0
    2.7936    2.8565    0.6421 H   0  0  0  0  0  0  0  0  0  0  0  0
    4.0470    4.4951    1.9199 H   0  0  0  0  0  0  0  0  0  0  0  0
    8.2578    2.6226   -0.7031 H   0  0  0  0  0  0  0  0  0  0  0  0
    6.0197    5.3795    2.3528 H   0  0  0  0  0  0  0  0  0  0  0  0
  1 16  1  0  0  0  0
  1 20  1  0  0  0  0
  2 19  1  0  0  0  0
  2 22  1  0  0  0  0
  3 20  1  0  0  0  0
  3 25  1  0  0  0  0
  4 17  1  0  0  0  0
  4 60  1  0  0  0  0
  5 22  1  0  0  0  0
  5 28  1  0  0  0  0
  6 18  1  0  0  0  0
  6 61  1  0  0  0  0
  7 21  1  0  0  0  0
  7 62  1  0  0  0  0
  8 23  1  0  0  0  0
  8 63  1  0  0  0  0
  9 24  1  0  0  0  0
  9 64  1  0  0  0  0
 10 26  1  0  0  0  0
 10 30  1  0  0  0  0
 11 30  2  0  0  0  0
 12 35  1  0  0  0  0
 12 74  1  0  0  0  0
 13 37  1  0  0  0  0
 13 75  1  0  0  0  0
 14 42  1  0  0  0  0
 14 79  1  0  0  0  0
 15 44  1  0  0  0  0
 15 80  1  0  0  0  0
 16 17  1  0  0  0  0
 16 18  1  0  0  0  0
 16 45  1  0  0  0  0
 17 19  1  0  0  0  0
 17 46  1  0  0  0  0
 18 22  1  0  0  0  0
 18 47  1  0  0  0  0
 19 26  1  0  0  0  0
 19 48  1  0  0  0  0
 20 21  1  0  0  0  0
 20 49  1  0  0  0  0
 21 23  1  0  0  0  0
 21 50  1  0  0  0  0
 22 51  1  0  0  0  0
 23 24  1  0  0  0  0
 23 52  1  0  0  0  0
 24 25  1  0  0  0  0
 24 53  1  0  0  0  0
 25 27  1  0  0  0  0
 25 54  1  0  0  0  0
 26 55  1  0  0  0  0
 26 56  1  0  0  0  0
 27 57  1  0  0  0  0
 27 58  1  0  0  0  0
 27 59  1  0  0  0  0
 28 29  1  0  0  0  0
 28 65  1  0  0  0  0
 28 66  1  0  0  0  0
 29 31  1  0  0  0  0
 29 67  1  0  0  0  0
 29 68  1  0  0  0  0
 30 33  1  0  0  0  0
 31 32  2  0  0  0  0
 31 34  1  0  0  0  0
 32 35  1  0  0  0  0
 32 69  1  0  0  0  0
 33 38  2  0  0  0  0
 33 71  1  0  0  0  0
 34 36  2  0  0  0  0
 34 70  1  0  0  0  0
 35 37  2  0  0  0  0
 36 37  1  0  0  0  0
 36 72  1  0  0  0  0
 38 39  1  0  0  0  0
 38 73  1  0  0  0  0
 39 40  2  0  0  0  0
 39 41  1  0  0  0  0
 40 42  1  0  0  0  0
 40 76  1  0  0  0  0
 41 43  2  0  0  0  0
 41 77  1  0  0  0  0
 42 44  2  0  0  0  0
 43 44  1  0  0  0  0
 43 78  1  0  0  0  0
M  END
> <PUBCHEM_COMPOUND_CID>
6476333

> <PUBCHEM_CONFORMER_RMSD>
1.2

> <PUBCHEM_CONFORMER_DIVERSEORDER>
1
108
163
136
96
97
120
101
46
92
63
184
40
98
166
74
36
125
80
169
91
176
164
158
17
190
189
182
168
133
89
150
142
59
94
173
102
127
116
157
115
34
25
188
18
114
111
119
145
100
103
35
67
99
82
23
73
38
15
187
6
124
42
181
138
85
141
60
128
180
144
170
135
88
93
165
41
139
106
68
58
148
70
27
26
19
22
65
31
107
64
28
14
134
156
131
55
117
178
143
118
121
155
57
77
172
152
84
132
66
49
126
69
43
54
75
149
191
29
9
53
50
110
185
72
81
5
21
112
179
186
8
171
76
130
154
122
104
86
162
137
183
83
30
109
47
174
147
48
79
175
129
62
177
160
113
159
146
16
11
52
161
71
123
87
13
167
32
24
61
33
95
10
37
140
90
56
105
39
2
51
151
78
153
44
45
12
20
3
4
7

> <PUBCHEM_MMFF94_PARTIAL_CHARGES>
60
1 -0.56
10 -0.43
11 -0.57
12 -0.53
13 -0.53
14 -0.53
15 -0.53
16 0.28
17 0.28
18 0.28
19 0.28
2 -0.56
20 0.56
21 0.28
22 0.56
23 0.28
24 0.28
25 0.28
26 0.28
28 0.28
29 0.14
3 -0.56
30 0.71
31 -0.14
32 -0.15
33 -0.14
34 -0.15
35 0.08
36 -0.15
37 0.08
38 -0.18
39 0.03
4 -0.68
40 -0.15
41 -0.15
42 0.08
43 -0.15
44 0.08
5 -0.56
6 -0.68
60 0.4
61 0.4
62 0.4
63 0.4
64 0.4
69 0.15
7 -0.68
70 0.15
71 0.15
72 0.15
73 0.15
74 0.45
75 0.45
76 0.15
77 0.15
78 0.15
79 0.45
8 -0.68
80 0.45
9 -0.68

> <PUBCHEM_EFFECTIVE_ROTOR_COUNT>
13.4

> <PUBCHEM_PHARMACOPHORE_FEATURES>
23
1 1 acceptor
1 11 acceptor
1 12 donor
1 13 donor
1 14 donor
1 15 donor
1 2 acceptor
1 3 acceptor
1 4 acceptor
1 4 donor
1 5 acceptor
1 6 acceptor
1 6 donor
1 7 acceptor
1 7 donor
1 8 acceptor
1 8 donor
1 9 acceptor
1 9 donor
6 2 16 17 18 19 22 rings
6 3 20 21 23 24 25 rings
6 31 32 34 35 36 37 rings
6 39 40 41 42 43 44 rings

> <PUBCHEM_HEAVY_ATOM_COUNT>
44

> <PUBCHEM_ATOM_DEF_STEREO_COUNT>
10

> <PUBCHEM_ATOM_UDEF_STEREO_COUNT>
0

> <PUBCHEM_BOND_DEF_STEREO_COUNT>
1

> <PUBCHEM_BOND_UDEF_STEREO_COUNT>
0

> <PUBCHEM_ISOTOPIC_ATOM_COUNT>
0

> <PUBCHEM_COMPONENT_COUNT>
1

> <PUBCHEM_CACTVS_TAUTO_COUNT>
180

> <PUBCHEM_CONFORMER_ID>
0062D22D00000001

> <PUBCHEM_MMFF94_ENERGY>
123.2379

> <PUBCHEM_FEATURE_SELFOVERLAP>
116.856

> <PUBCHEM_SHAPE_FINGERPRINT>
11505856 67 18199459051522152911
12128747 34 17824820036380322861
12422481 6 17313106341518938879
13165054 342 18340761632850485880
13782708 43 11170178917381401268
13947947 63 18268693056823807544
14017581 57 18410282615435188860
14705955 166 17691682711988508560
15160629 35 18336536196447231088
15392192 104 17459208398577208661
15406563 190 16660635242523097924
15950262 2 17916874641755974044
16096371 109 18191026707917111523
19309040 13 18201154464345048686
19438510 23 18200318843738767776
21796203 349 18044358445652811714
21987440 362 18337113483819183030
22889206 1 18411135796975826073
23191077 185 17989199374169330791
23569914 152 9078004927107867491
394071 54 18189334567843048319
4066623 53 12607414278251305290
4112364 45 18339085891672883833
563151 74 18335704969951358794
5951187 136 18201170870872069470

> <PUBCHEM_SHAPE_MULTIPOLES>
817.46
20.23
6.97
2.68
14.28
1.62
-0.9
-29.36
7.33
-10.83
4.01
1.66
-0.38
-0.2

> <PUBCHEM_SHAPE_SELFOVERLAP>
1733.197

> <PUBCHEM_SHAPE_VOLUME>
450

> <PUBCHEM_COORDINATE_TYPE>
2
5
10

$$$$
