13607752
  -OEChem-09302015233D

 51 54  0     1  0  0  0  0  0999 V2000
   -4.4440   -0.1115   -0.7608 O   0  0  0  0  0  0  0  0  0  0  0  0
   -2.1800    0.2935   -1.1518 O   0  0  0  0  0  0  0  0  0  0  0  0
   -4.9402    3.5723    0.9870 O   0  0  0  0  0  0  0  0  0  0  0  0
   -2.2507    2.4005    0.7299 O   0  0  0  0  0  0  0  0  0  0  0  0
   -6.8929    1.4694    1.4489 O   0  0  0  0  0  0  0  0  0  0  0  0
   -7.7803   -0.7203    0.1476 O   0  0  0  0  0  0  0  0  0  0  0  0
   -6.5761   -1.1111   -1.7480 O   0  0  0  0  0  0  0  0  0  0  0  0
    2.4722   -0.0082   -0.2458 O   0  0  0  0  0  0  0  0  0  0  0  0
   -0.4155   -3.8560    0.3460 O   0  0  0  0  0  0  0  0  0  0  0  0
    2.1640   -3.9284    0.8200 O   0  0  0  0  0  0  0  0  0  0  0  0
    6.3720    2.8241   -1.6304 O   0  0  0  0  0  0  0  0  0  0  0  0
    8.3974    2.1738    0.1585 O   0  0  0  0  0  0  0  0  0  0  0  0
   -4.6415    2.1758    0.9668 C   0  0  2  0  0  0  0  0  0  0  0  0
   -3.4262    1.9267    0.0731 C   0  0  2  0  0  0  0  0  0  0  0  0
   -5.8754    1.4356    0.4494 C   0  0  1  0  0  0  0  0  0  0  0  0
   -5.5424   -0.0183    0.1392 C   0  0  1  0  0  0  0  0  0  0  0  0
   -3.2467    0.4358   -0.2144 C   0  0  1  0  0  0  0  0  0  0  0  0
   -6.6569   -0.6748   -0.6094 C   0  0  0  0  0  0  0  0  0  0  0  0
   -1.1098   -0.4500   -0.7507 C   0  0  0  0  0  0  0  0  0  0  0  0
    0.1579    0.1297   -0.6935 C   0  0  0  0  0  0  0  0  0  0  0  0
   -1.2843   -1.7888   -0.3972 C   0  0  0  0  0  0  0  0  0  0  0  0
    1.2512   -0.6326   -0.2815 C   0  0  0  0  0  0  0  0  0  0  0  0
    1.0750   -1.9696    0.0710 C   0  0  0  0  0  0  0  0  0  0  0  0
   -0.1925   -2.5538    0.0148 C   0  0  0  0  0  0  0  0  0  0  0  0
    2.2452   -2.7507    0.4999 C   0  0  0  0  0  0  0  0  0  0  0  0
    3.5761   -0.7392    0.1663 C   0  0  0  0  0  0  0  0  0  0  0  0
    3.5356   -2.0326    0.5235 C   0  0  0  0  0  0  0  0  0  0  0  0
    4.8386    0.0269    0.1616 C   0  0  0  0  0  0  0  0  0  0  0  0
    5.0185    1.0784   -0.7405 C   0  0  0  0  0  0  0  0  0  0  0  0
    5.8592   -0.2974    1.0589 C   0  0  0  0  0  0  0  0  0  0  0  0
    6.2117    1.8011   -0.7452 C   0  0  0  0  0  0  0  0  0  0  0  0
    7.0522    0.4252    1.0543 C   0  0  0  0  0  0  0  0  0  0  0  0
    7.2284    1.4745    0.1524 C   0  0  0  0  0  0  0  0  0  0  0  0
   -4.4261    1.8893    2.0039 H   0  0  0  0  0  0  0  0  0  0  0  0
   -3.5196    2.4863   -0.8660 H   0  0  0  0  0  0  0  0  0  0  0  0
   -6.2730    1.9478   -0.4355 H   0  0  0  0  0  0  0  0  0  0  0  0
   -5.3370   -0.6151    1.0367 H   0  0  0  0  0  0  0  0  0  0  0  0
   -3.0118   -0.0867    0.7246 H   0  0  0  0  0  0  0  0  0  0  0  0
   -4.1865    4.0294    1.3964 H   0  0  0  0  0  0  0  0  0  0  0  0
   -2.3332    3.3643    0.8238 H   0  0  0  0  0  0  0  0  0  0  0  0
   -6.5551    1.0137    2.2388 H   0  0  0  0  0  0  0  0  0  0  0  0
    0.2908    1.1729   -0.9689 H   0  0  0  0  0  0  0  0  0  0  0  0
   -2.2700   -2.2451   -0.4502 H   0  0  0  0  0  0  0  0  0  0  0  0
   -8.5252   -1.1467   -0.3273 H   0  0  0  0  0  0  0  0  0  0  0  0
    4.4040   -2.6099    0.8186 H   0  0  0  0  0  0  0  0  0  0  0  0
    0.4109   -4.2847    0.6165 H   0  0  0  0  0  0  0  0  0  0  0  0
    4.2425    1.3449   -1.4548 H   0  0  0  0  0  0  0  0  0  0  0  0
    5.7527   -1.0926    1.7919 H   0  0  0  0  0  0  0  0  0  0  0  0
    7.8344    0.1638    1.7620 H   0  0  0  0  0  0  0  0  0  0  0  0
    7.2540    3.2117   -1.4934 H   0  0  0  0  0  0  0  0  0  0  0  0
    8.9817    1.8079    0.8446 H   0  0  0  0  0  0  0  0  0  0  0  0
  1 16  1  0  0  0  0
  1 17  1  0  0  0  0
  2 17  1  0  0  0  0
  2 19  1  0  0  0  0
  3 13  1  0  0  0  0
  3 39  1  0  0  0  0
  4 14  1  0  0  0  0
  4 40  1  0  0  0  0
  5 15  1  0  0  0  0
  5 41  1  0  0  0  0
  6 18  1  0  0  0  0
  6 44  1  0  0  0  0
  7 18  2  0  0  0  0
  8 22  1  0  0  0  0
  8 26  1  0  0  0  0
  9 24  1  0  0  0  0
  9 46  1  0  0  0  0
 10 25  2  0  0  0  0
 11 31  1  0  0  0  0
 11 50  1  0  0  0  0
 12 33  1  0  0  0  0
 12 51  1  0  0  0  0
 13 14  1  0  0  0  0
 13 15  1  0  0  0  0
 13 34  1  0  0  0  0
 14 17  1  0  0  0  0
 14 35  1  0  0  0  0
 15 16  1  0  0  0  0
 15 36  1  0  0  0  0
 16 18  1  0  0  0  0
 16 37  1  0  0  0  0
 17 38  1  0  0  0  0
 19 20  1  0  0  0  0
 19 21  2  0  0  0  0
 20 22  2  0  0  0  0
 20 42  1  0  0  0  0
 21 24  1  0  0  0  0
 21 43  1  0  0  0  0
 22 23  1  0  0  0  0
 23 24  2  0  0  0  0
 23 25  1  0  0  0  0
 25 27  1  0  0  0  0
 26 27  2  0  0  0  0
 26 28  1  0  0  0  0
 27 45  1  0  0  0  0
 28 29  2  0  0  0  0
 28 30  1  0  0  0  0
 29 31  1  0  0  0  0
 29 47  1  0  0  0  0
 30 32  2  0  0  0  0
 30 48  1  0  0  0  0
 31 33  2  0  0  0  0
 32 33  1  0  0  0  0
 32 49  1  0  0  0  0
M  END
> <PUBCHEM_COMPOUND_CID>
13607752

> <PUBCHEM_CONFORMER_RMSD>
1

> <PUBCHEM_CONFORMER_DIVERSEORDER>
1
101
355
334
42
221
357
303
148
254
297
318
284
257
366
220
151
3
63
128
251
195
268
242
258
179
346
368
354
137
174
222
22
270
340
208
312
25
46
322
9
287
184
181
323
289
313
170
321
299
155
269
358
241
15
259
261
202
47
367
359
73
39
171
124
252
361
333
192
16
238
193
117
307
293
18
143
43
281
215
245
219
336
300
108
260
315
319
78
267
264
302
325
10
135
102
109
332
227
158
27
226
183
7
207
301
105
167
249
294
55
204
140
329
283
80
365
211
146
72
142
149
186
79
41
275
8
343
157
116
187
347
353
182
349
243
35
48
205
189
188
11
363
295
328
324
103
230
126
218
356
237
292
298
311
317
338
360
86
81
38
36
210
58
95
371
159
113
4
217
106
175
110
2
163
98
154
362
180
272
201
178
120
45
209
273
77
345
200
62
278
145
24
265
320
94
246
13
5
225
369
23
164
216
330
65
6
341
274
212
203
290
316
235
286
198
236
160
66
30
239
56
96
276
150
70
197
127
141
280
29
173
67
263
87
370
262
31
144
350
255
232
100
104
33
306
344
69
282
50
185
223
196
331
26
176
244
129
326
147
134
177
118
248
310
285
305
85
114
304
229
53
335
97
253
17
61
271
233
57
153
231
337
247
288
250
68
130
339
168
54
28
82
88
32
309
166
93
111
99
136
71
296
60
138
112
92
84
190
49
206
213
214
131
327
64
90
34
51
12
161
20
132
256
59
89
351
74
123
52
172
342
139
348
162
121
122
83
133
291
224
152
44
169
199
107
76
156
115
194
228
240
119
314
191
91
14
165
266
37
234
277
21
19
75
364
352
279
40
125
308

> <PUBCHEM_MMFF94_PARTIAL_CHARGES>
46
1 -0.56
10 -0.57
11 -0.53
12 -0.53
13 0.28
14 0.28
15 0.28
16 0.34
17 0.56
18 0.66
19 0.08
2 -0.36
20 -0.15
21 -0.15
22 0.08
23 0.09
24 0.08
25 0.47
26 0.05
27 -0.14
28 0.03
29 -0.15
3 -0.68
30 -0.15
31 0.08
32 -0.15
33 0.08
39 0.4
4 -0.68
40 0.4
41 0.4
42 0.15
43 0.15
44 0.5
45 0.15
46 0.45
47 0.15
48 0.15
49 0.15
5 -0.68
50 0.45
51 0.45
6 -0.65
7 -0.57
8 -0.16
9 -0.53

> <PUBCHEM_EFFECTIVE_ROTOR_COUNT>
5.2

> <PUBCHEM_PHARMACOPHORE_FEATURES>
20
1 1 acceptor
1 10 acceptor
1 11 donor
1 12 donor
1 2 acceptor
1 3 acceptor
1 3 donor
1 4 acceptor
1 4 donor
1 5 acceptor
1 5 donor
1 6 acceptor
1 7 acceptor
1 8 acceptor
1 9 donor
3 6 7 18 anion
6 1 13 14 15 16 17 rings
6 19 20 21 22 23 24 rings
6 28 29 30 31 32 33 rings
6 8 22 23 25 26 27 rings

> <PUBCHEM_HEAVY_ATOM_COUNT>
33

> <PUBCHEM_ATOM_DEF_STEREO_COUNT>
0

> <PUBCHEM_ATOM_UDEF_STEREO_COUNT>
5

> <PUBCHEM_BOND_DEF_STEREO_COUNT>
0

> <PUBCHEM_BOND_UDEF_STEREO_COUNT>
0

> <PUBCHEM_ISOTOPIC_ATOM_COUNT>
0

> <PUBCHEM_COMPONENT_COUNT>
1

> <PUBCHEM_CACTVS_TAUTO_COUNT>
57

> <PUBCHEM_CONFORMER_ID>
00CFA34800000001

> <PUBCHEM_MMFF94_ENERGY>
103.7451

> <PUBCHEM_FEATURE_SELFOVERLAP>
101.672

> <PUBCHEM_SHAPE_FINGERPRINT>
10 15 17748824137889185670
10369192 42 17203608186037807181
10595046 47 18340484474594871315
10835480 77 18115297879277657973
11135609 201 18337664308953009016
11273773 42 18341610451425925926
12107183 9 18188193348842766490
12144603 126 18343861114223251551
12760667 363 10015588315463148454
12925494 130 18051126188735001712
13540713 5 18267846355313465246
13726171 33 17488473975188853569
13885169 86 18261679263660321412
14257110 125 18410011040041668870
14394314 77 18341899554471451785
1454969 45 18409163325061060909
14790565 3 18408887334947861396
14849402 71 18412826919079888529
15064981 194 17826245274665817206
15188451 53 12324240568617602756
15357212 105 17343524214753387929
15475509 35 15937531430370040194
15685185 35 18118408577776854764
15728490 51 18341046424111693407
1577012 14 18342738490026339693
16126227 98 18411138082388732736
16992610 120 18335435590858062500
16992752 21 17988635355565910511
18393751 57 18186242822707676323
18603816 31 13335019460638207217
18608769 82 18341329002340818635
19377110 9 18410851028249647539
21424621 283 18342455941856087122
21756936 100 18272082825132976302
21781055 127 18201441347233912586
21987483 16 17749109993780648803
22224240 67 18113615694431183330
24771293 8 18409730668455238124
3411729 13 18338518539061947042
397830 11 14707500251535566260
3986486 107 18200615644124759796
4073 2 18334582313531276443
4093350 32 17632295636920989022
4169191 19 18333166167886375413
4258327 124 17895767325748597884
5104073 3 18190182274465395979
5219985 9 9799699194886642894
550186 72 18411417268191105501
5758199 1 18411419518225551403
5776283 40 18199466735429499672
636775 72 18199462342031454848
9961470 85 17980193416029386152

> <PUBCHEM_SHAPE_MULTIPOLES>
608.69
22.43
3.67
1.1
1.81
1.33
0.1
-16.03
-1.29
0.94
-0.77
-0.25
-0.32
-3.16

> <PUBCHEM_SHAPE_SELFOVERLAP>
1344.728

> <PUBCHEM_SHAPE_VOLUME>
322.4

> <PUBCHEM_COORDINATE_TYPE>
2
5
10

$$$$
