92043450
  -OEChem-09302015173D

 52 54  0     1  0  0  0  0  0999 V2000
   -0.6127   -0.0215    0.7081 O   0  0  0  0  0  0  0  0  0  0  0  0
    0.2800    0.6699   -1.3643 O   0  0  0  0  0  0  0  0  0  0  0  0
    2.2173   -0.7726    1.6458 O   0  0  0  0  0  0  0  0  0  0  0  0
   -2.6842    0.8384    0.0651 O   0  0  0  0  0  0  0  0  0  0  0  0
    4.7951    0.3649    1.0039 O   0  0  0  0  0  0  0  0  0  0  0  0
   -1.7292   -2.6215    0.7483 O   0  0  0  0  0  0  0  0  0  0  0  0
   -4.6243   -2.5671    1.2924 O   0  0  0  0  0  0  0  0  0  0  0  0
   -5.9538   -0.7170   -0.4865 O   0  0  0  0  0  0  0  0  0  0  0  0
    3.7762   -2.1185   -0.1000 O   0  0  0  0  0  0  0  0  0  0  0  0
    3.6242   -1.6015   -2.3515 O   0  0  0  0  0  0  0  0  0  0  0  0
   -3.8742    2.8621   -1.3646 O   0  0  0  0  0  0  0  0  0  0  0  0
    1.3844    1.3291    0.7614 C   0  0  1  0  0  0  0  0  0  0  0  0
    2.3985    0.1724    0.6118 C   0  0  1  0  0  0  0  0  0  0  0  0
    2.1279    2.5659    0.2126 C   0  0  2  0  0  0  0  0  0  0  0  0
    0.0777    1.0191    0.0126 C   0  0  2  0  0  0  0  0  0  0  0  0
    3.5524    2.4083    0.7457 C   0  0  0  0  0  0  0  0  0  0  0  0
    3.7180    0.9112    0.7954 C   0  0  0  0  0  0  0  0  0  0  0  0
    2.3062   -0.4761   -0.7347 C   0  0  0  0  0  0  0  0  0  0  0  0
    1.5026    3.8851    0.6462 C   0  0  0  0  0  0  0  0  0  0  0  0
   -1.8587   -0.3239    0.0810 C   0  0  2  0  0  0  0  0  0  0  0  0
   -2.5266   -1.4447    0.8773 C   0  0  1  0  0  0  0  0  0  0  0  0
    1.3261   -0.1851   -1.5997 C   0  0  0  0  0  0  0  0  0  0  0  0
   -3.9375   -1.7288    0.3617 C   0  0  2  0  0  0  0  0  0  0  0  0
   -4.7405   -0.4372    0.2068 C   0  0  1  0  0  0  0  0  0  0  0  0
   -3.9413    0.6088   -0.5739 C   0  0  1  0  0  0  0  0  0  0  0  0
    3.3038   -1.4509   -1.1830 C   0  0  0  0  0  0  0  0  0  0  0  0
   -4.6741    1.9452   -0.6406 C   0  0  0  0  0  0  0  0  0  0  0  0
    4.7669   -3.1138   -0.3771 C   0  0  0  0  0  0  0  0  0  0  0  0
    1.1493    1.4784    1.8253 H   0  0  0  0  0  0  0  0  0  0  0  0
    2.1579    2.5421   -0.8845 H   0  0  0  0  0  0  0  0  0  0  0  0
   -0.5440    1.9208    0.0273 H   0  0  0  0  0  0  0  0  0  0  0  0
    3.6623    2.8058    1.7593 H   0  0  0  0  0  0  0  0  0  0  0  0
    4.2872    2.8588    0.0740 H   0  0  0  0  0  0  0  0  0  0  0  0
    0.4994    4.0030    0.2257 H   0  0  0  0  0  0  0  0  0  0  0  0
    2.1095    4.7291    0.3020 H   0  0  0  0  0  0  0  0  0  0  0  0
    1.4220    3.9511    1.7364 H   0  0  0  0  0  0  0  0  0  0  0  0
   -1.6726   -0.6655   -0.9455 H   0  0  0  0  0  0  0  0  0  0  0  0
   -2.5507   -1.1947    1.9447 H   0  0  0  0  0  0  0  0  0  0  0  0
   -3.9050   -2.2844   -0.5828 H   0  0  0  0  0  0  0  0  0  0  0  0
    1.2464   -0.5837   -2.6025 H   0  0  0  0  0  0  0  0  0  0  0  0
    2.2105   -0.3035    2.4973 H   0  0  0  0  0  0  0  0  0  0  0  0
   -5.0113   -0.0506    1.1969 H   0  0  0  0  0  0  0  0  0  0  0  0
   -3.7528    0.2740   -1.6031 H   0  0  0  0  0  0  0  0  0  0  0  0
   -4.8273    2.3565    0.3627 H   0  0  0  0  0  0  0  0  0  0  0  0
   -5.6409    1.8486   -1.1438 H   0  0  0  0  0  0  0  0  0  0  0  0
   -1.6934   -2.8600   -0.1938 H   0  0  0  0  0  0  0  0  0  0  0  0
   -4.6542   -2.1073    2.1488 H   0  0  0  0  0  0  0  0  0  0  0  0
   -5.7246   -1.0477   -1.3718 H   0  0  0  0  0  0  0  0  0  0  0  0
   -4.3568    3.7059   -1.3908 H   0  0  0  0  0  0  0  0  0  0  0  0
    5.0600   -3.5743    0.5701 H   0  0  0  0  0  0  0  0  0  0  0  0
    5.6491   -2.6529   -0.8316 H   0  0  0  0  0  0  0  0  0  0  0  0
    4.3539   -3.8874   -1.0316 H   0  0  0  0  0  0  0  0  0  0  0  0
  1 15  1  0  0  0  0
  1 20  1  0  0  0  0
  2 15  1  0  0  0  0
  2 22  1  0  0  0  0
  3 13  1  0  0  0  0
  3 41  1  0  0  0  0
  4 20  1  0  0  0  0
  4 25  1  0  0  0  0
  5 17  2  0  0  0  0
  6 21  1  0  0  0  0
  6 46  1  0  0  0  0
  7 23  1  0  0  0  0
  7 47  1  0  0  0  0
  8 24  1  0  0  0  0
  8 48  1  0  0  0  0
  9 26  1  0  0  0  0
  9 28  1  0  0  0  0
 10 26  2  0  0  0  0
 11 27  1  0  0  0  0
 11 49  1  0  0  0  0
 12 13  1  0  0  0  0
 12 14  1  0  0  0  0
 12 15  1  0  0  0  0
 12 29  1  0  0  0  0
 13 17  1  0  0  0  0
 13 18  1  0  0  0  0
 14 16  1  0  0  0  0
 14 19  1  0  0  0  0
 14 30  1  0  0  0  0
 15 31  1  0  0  0  0
 16 17  1  0  0  0  0
 16 32  1  0  0  0  0
 16 33  1  0  0  0  0
 18 22  2  0  0  0  0
 18 26  1  0  0  0  0
 19 34  1  0  0  0  0
 19 35  1  0  0  0  0
 19 36  1  0  0  0  0
 20 21  1  0  0  0  0
 20 37  1  0  0  0  0
 21 23  1  0  0  0  0
 21 38  1  0  0  0  0
 22 40  1  0  0  0  0
 23 24  1  0  0  0  0
 23 39  1  0  0  0  0
 24 25  1  0  0  0  0
 24 42  1  0  0  0  0
 25 27  1  0  0  0  0
 25 43  1  0  0  0  0
 27 44  1  0  0  0  0
 27 45  1  0  0  0  0
 28 50  1  0  0  0  0
 28 51  1  0  0  0  0
 28 52  1  0  0  0  0
M  END
> <PUBCHEM_COMPOUND_CID>
92043450

> <PUBCHEM_CONFORMER_RMSD>
0.8

> <PUBCHEM_CONFORMER_DIVERSEORDER>
1
69
92
33
29
61
51
80
46
106
45
107
19
17
43
57
94
82
75
28
96
27
77
24
108
103
48
66
74
41
2
86
6
78
101
44
34
37
7
32
64
23
63
16
109
12
35
84
83
98
72
97
68
9
58
102
52
76
21
91
8
38
42
81
25
67
104
49
4
85
13
87
10
5
20
15
89
88
79
39
71
3
60
40
31
55
56
93
26
22
14
47
105
30
95
90
50
59
53
18
100
54
99
62
65
11
36
70
73

> <PUBCHEM_MMFF94_PARTIAL_CHARGES>
31
1 -0.56
10 -0.57
11 -0.68
13 0.48
15 0.56
16 0.06
17 0.45
18 -0.12
2 -0.36
20 0.56
21 0.28
22 -0.07
23 0.28
24 0.28
25 0.28
26 0.71
27 0.28
28 0.28
3 -0.68
4 -0.56
40 0.15
41 0.4
46 0.4
47 0.4
48 0.4
49 0.4
5 -0.57
6 -0.68
7 -0.68
8 -0.68
9 -0.43

> <PUBCHEM_EFFECTIVE_ROTOR_COUNT>
7

> <PUBCHEM_PHARMACOPHORE_FEATURES>
18
1 1 acceptor
1 10 acceptor
1 11 acceptor
1 11 donor
1 2 acceptor
1 3 acceptor
1 3 donor
1 4 acceptor
1 5 acceptor
1 6 acceptor
1 6 donor
1 7 acceptor
1 7 donor
1 8 acceptor
1 8 donor
5 12 13 14 16 17 rings
6 2 12 13 15 18 22 rings
6 4 20 21 23 24 25 rings

> <PUBCHEM_HEAVY_ATOM_COUNT>
28

> <PUBCHEM_ATOM_DEF_STEREO_COUNT>
9

> <PUBCHEM_ATOM_UDEF_STEREO_COUNT>
0

> <PUBCHEM_BOND_DEF_STEREO_COUNT>
0

> <PUBCHEM_BOND_UDEF_STEREO_COUNT>
0

> <PUBCHEM_ISOTOPIC_ATOM_COUNT>
0

> <PUBCHEM_COMPONENT_COUNT>
1

> <PUBCHEM_CACTVS_TAUTO_COUNT>
2

> <PUBCHEM_CONFORMER_ID>
057C78BA00000001

> <PUBCHEM_MMFF94_ENERGY>
72.3336

> <PUBCHEM_FEATURE_SELFOVERLAP>
91.659

> <PUBCHEM_SHAPE_FINGERPRINT>
10369192 42 18120372318592637876
10646746 165 18333725845022138169
1100329 8 16681753261040082121
11405975 8 18343026558273488185
11796584 16 18117282458647240558
12403259 226 18409730664587349925
12553582 1 18054815908875229990
12633257 1 18116129195419015240
12788726 201 17905610995564393410
13134695 92 17417804028664047392
13140716 1 17986117310117583640
13544592 145 18336264526880648902
13583140 156 18342453785524080645
13757389 114 16679517485850593060
14251757 17 18410853248599884425
14790565 3 17834955648594308592
14866123 147 17405151725103758378
14955137 171 18200310043931670360
15961568 22 17823979150256089541
17349148 13 16200431368887573981
17492 89 18340205288699033983
17844677 252 18413110537524360809
20645477 70 17917994957856892830
21033648 29 17631999884718255241
21033650 10 17314236566173232652
21065201 7 18259983764900097595
21279426 13 18265609879688832223
22393880 68 18260825960731952171
23557571 272 18335135414686935045
23559900 14 18341327808191782040
3004659 81 17969510312330536926
3421961 26 18343021073668985266
460360 51 18335433351972403561
469060 322 8428872004741888289
5104073 3 18130515162707163075
5281201 14 18412546513644609621
5895379 119 17821452365055198036
59755656 215 18340208604445363636
6823239 73 18410293597250002538
7399639 24 17836077149942489345
9709674 26 18411136982761118827

> <PUBCHEM_SHAPE_MULTIPOLES>
511.66
11.25
3.59
1.39
9.46
1.14
0.42
-3.75
0.36
-1.86
-0.22
-0.6
-0.32
2.92

> <PUBCHEM_SHAPE_SELFOVERLAP>
1085.676

> <PUBCHEM_SHAPE_VOLUME>
282.8

> <PUBCHEM_COORDINATE_TYPE>
2
5
10

$$$$
