101805792
  -OEChem-08222008073D

 41 44  0     1  0  0  0  0  0999 V2000
    3.3115    0.7880    0.4540 O   0  0  0  0  0  0  0  0  0  0  0  0
    1.1769   -0.9534   -2.0117 O   0  0  0  0  0  0  0  0  0  0  0  0
    1.0675    1.8404    1.5873 O   0  0  0  0  0  0  0  0  0  0  0  0
   -1.9214    1.3746   -0.0272 O   0  0  0  0  0  0  0  0  0  0  0  0
    2.6105   -2.4461   -0.0768 O   0  0  0  0  0  0  0  0  0  0  0  0
   -4.2136    1.5222   -0.0888 O   0  0  0  0  0  0  0  0  0  0  0  0
    1.4190   -0.4376   -0.6847 C   0  0  1  0  0  0  0  0  0  0  0  0
    2.7327    0.3208   -0.7660 C   0  0  1  0  0  0  0  0  0  0  0  0
    0.3536    0.6975   -0.4847 C   0  0  2  0  0  0  0  0  0  0  0  0
    2.5355    1.7218   -0.2977 C   0  0  1  0  0  0  0  0  0  0  0  0
    1.1162    1.9060    0.1644 C   0  0  2  0  0  0  0  0  0  0  0  0
    1.4470   -1.6616    0.2846 C   0  0  1  0  0  0  0  0  0  0  0  0
   -0.9585    0.3248    0.2190 C   0  0  2  0  0  0  0  0  0  0  0  0
   -1.6189   -0.9503   -0.2898 C   0  0  1  0  0  0  0  0  0  0  0  0
    0.2753   -2.6485    0.0593 C   0  0  0  0  0  0  0  0  0  0  0  0
    0.5618    3.2630   -0.2677 C   0  0  0  0  0  0  0  0  0  0  0  0
   -1.1295   -2.1963    0.4465 C   0  0  0  0  0  0  0  0  0  0  0  0
    1.5959   -1.3556    1.7803 C   0  0  0  0  0  0  0  0  0  0  0  0
   -3.0556   -0.5987   -0.0677 C   0  0  0  0  0  0  0  0  0  0  0  0
   -3.1855    0.8711   -0.0556 C   0  0  0  0  0  0  0  0  0  0  0  0
   -4.1206   -1.3820    0.1229 C   0  0  0  0  0  0  0  0  0  0  0  0
    0.0676    1.0436   -1.4916 H   0  0  0  0  0  0  0  0  0  0  0  0
    3.3833    0.0996   -1.5972 H   0  0  0  0  0  0  0  0  0  0  0  0
    3.0208    2.5420   -0.8002 H   0  0  0  0  0  0  0  0  0  0  0  0
   -0.8285    0.2922    1.3054 H   0  0  0  0  0  0  0  0  0  0  0  0
   -1.4732   -1.0622   -1.3719 H   0  0  0  0  0  0  0  0  0  0  0  0
    0.4829   -3.5729    0.6185 H   0  0  0  0  0  0  0  0  0  0  0  0
    0.2650   -2.9810   -0.9876 H   0  0  0  0  0  0  0  0  0  0  0  0
    1.1856    4.0753    0.1245 H   0  0  0  0  0  0  0  0  0  0  0  0
   -0.4433    3.4324    0.1295 H   0  0  0  0  0  0  0  0  0  0  0  0
    0.5351    3.3631   -1.3577 H   0  0  0  0  0  0  0  0  0  0  0  0
   -1.8004   -3.0364    0.2264 H   0  0  0  0  0  0  0  0  0  0  0  0
   -1.1866   -2.0490    1.5324 H   0  0  0  0  0  0  0  0  0  0  0  0
    1.2770   -0.2289   -2.6527 H   0  0  0  0  0  0  0  0  0  0  0  0
    2.5592   -0.8914    2.0071 H   0  0  0  0  0  0  0  0  0  0  0  0
    1.5881   -2.2853    2.3633 H   0  0  0  0  0  0  0  0  0  0  0  0
    0.8025   -0.7231    2.1756 H   0  0  0  0  0  0  0  0  0  0  0  0
    1.6044    2.5708    1.9395 H   0  0  0  0  0  0  0  0  0  0  0  0
    2.6803   -3.1947    0.5401 H   0  0  0  0  0  0  0  0  0  0  0  0
   -4.0343   -2.4627    0.1175 H   0  0  0  0  0  0  0  0  0  0  0  0
   -5.1112   -0.9695    0.2838 H   0  0  0  0  0  0  0  0  0  0  0  0
  1  8  1  0  0  0  0
  1 10  1  0  0  0  0
  2  7  1  0  0  0  0
  2 34  1  0  0  0  0
  3 11  1  0  0  0  0
  3 38  1  0  0  0  0
  4 13  1  0  0  0  0
  4 20  1  0  0  0  0
  5 12  1  0  0  0  0
  5 39  1  0  0  0  0
  6 20  2  0  0  0  0
  7  8  1  0  0  0  0
  7  9  1  0  0  0  0
  7 12  1  0  0  0  0
  8 10  1  0  0  0  0
  8 23  1  0  0  0  0
  9 11  1  0  0  0  0
  9 13  1  0  0  0  0
  9 22  1  0  0  0  0
 10 11  1  0  0  0  0
 10 24  1  0  0  0  0
 11 16  1  0  0  0  0
 12 15  1  0  0  0  0
 12 18  1  0  0  0  0
 13 14  1  0  0  0  0
 13 25  1  0  0  0  0
 14 17  1  0  0  0  0
 14 19  1  0  0  0  0
 14 26  1  0  0  0  0
 15 17  1  0  0  0  0
 15 27  1  0  0  0  0
 15 28  1  0  0  0  0
 16 29  1  0  0  0  0
 16 30  1  0  0  0  0
 16 31  1  0  0  0  0
 17 32  1  0  0  0  0
 17 33  1  0  0  0  0
 18 35  1  0  0  0  0
 18 36  1  0  0  0  0
 18 37  1  0  0  0  0
 19 20  1  0  0  0  0
 19 21  2  0  0  0  0
 21 40  1  0  0  0  0
 21 41  1  0  0  0  0
M  END
> <PUBCHEM_COMPOUND_CID>
101805792

> <PUBCHEM_CONFORMER_RMSD>
0.6

> <PUBCHEM_CONFORMER_DIVERSEORDER>
1
2
3

> <PUBCHEM_MMFF94_PARTIAL_CHARGES>
23
1 -0.3
10 -0.05
11 0.38
12 0.28
13 0.28
14 0.14
19 -0.12
2 -0.68
20 0.71
21 -0.3
23 0.1
24 0.1
3 -0.68
34 0.4
38 0.4
39 0.4
4 -0.43
40 0.15
41 0.15
5 -0.68
6 -0.57
7 0.38
8 -0.05

> <PUBCHEM_EFFECTIVE_ROTOR_COUNT>
1.2

> <PUBCHEM_PHARMACOPHORE_FEATURES>
11
1 1 acceptor
1 2 acceptor
1 2 donor
1 3 acceptor
1 3 donor
1 5 acceptor
1 5 donor
1 6 acceptor
5 4 13 14 19 20 rings
6 1 7 8 9 10 11 rings
7 7 9 12 13 14 15 17 rings

> <PUBCHEM_HEAVY_ATOM_COUNT>
21

> <PUBCHEM_ATOM_DEF_STEREO_COUNT>
8

> <PUBCHEM_ATOM_UDEF_STEREO_COUNT>
0

> <PUBCHEM_BOND_DEF_STEREO_COUNT>
0

> <PUBCHEM_BOND_UDEF_STEREO_COUNT>
0

> <PUBCHEM_ISOTOPIC_ATOM_COUNT>
0

> <PUBCHEM_COMPONENT_COUNT>
1

> <PUBCHEM_CACTVS_TAUTO_COUNT>
1

> <PUBCHEM_CONFORMER_ID>
06116EE000000001

> <PUBCHEM_MMFF94_ENERGY>
83.2933

> <PUBCHEM_FEATURE_SELFOVERLAP>
55.871

> <PUBCHEM_SHAPE_FINGERPRINT>
104564 63 17618222806279580935
10863032 1 18411982442393318690
10948715 1 18336546143907778312
10967382 1 18337955700365660167
10980938 120 18408887334451664331
1100329 8 17041763089137167856
11578080 2 17097477710217929662
12011746 2 18336543918924860758
12403260 363 18194391410818213639
12423570 1 17342110539083972902
12553582 1 17976820887385347491
13132413 78 18411132515831509724
13140716 1 18265050232723634083
13464514 151 18410584980431337308
14178342 30 18411691093593009865
14223421 5 18335986475473180843
14251745 187 18196374951063953240
14790565 3 15171937889093372166
15196674 1 18409730664027933758
15536298 74 18412825759237861975
15775835 57 18333736805757227743
16945 1 18194691586050973550
18186145 218 18342188734639407853
20510252 161 17619355741490521785
20511035 2 17840586229984818700
20691752 17 17530684282128469603
20905425 154 18340487768375884044
21421861 104 17898290493964105064
21501502 16 18409164403129565339
21524375 3 17984143935267993341
23184049 29 18264767653760824103
2334 1 18409731742244157607
23419403 2 17100271560574180150
23558518 356 17685772823624424728
23559900 14 18341614755431958294
238 59 18048280540582063709
25 1 18408326596311396581
2748010 2 18410294666332829751
2871803 45 18267581489322609975
335352 9 18193558857230637095
34934 24 18413103944274957285
350125 39 17976830005426889001
5104073 3 18335988580381365291
53812653 166 18412262856518388545
5939293 188 18412821369786670609
7364860 26 18411981329996977431
7832392 63 18411982446851848879
81228 2 17551242761254743579
9709674 26 18338805627523938503
9999458 23 17824539896837487492

> <PUBCHEM_SHAPE_MULTIPOLES>
396.95
5.45
3.13
1.1
5.02
0.29
-0.08
0.75
0.09
-0.81
-0.29
-0.67
-0.22
0.06

> <PUBCHEM_SHAPE_SELFOVERLAP>
865.542

> <PUBCHEM_SHAPE_VOLUME>
215.2

> <PUBCHEM_COORDINATE_TYPE>
2
5
10

$$$$
