13604687
  -OEChem-09122012103D

 61 63  0     1  0  0  0  0  0999 V2000
    2.3215   -1.5054    0.2285 O   0  0  0  0  0  0  0  0  0  0  0  0
    2.4879    1.3794    0.3599 O   0  0  0  0  0  0  0  0  0  0  0  0
    3.4376   -0.0067   -1.9813 O   0  0  0  0  0  0  0  0  0  0  0  0
    4.9740   -0.3066    2.4146 O   0  0  0  0  0  0  0  0  0  0  0  0
    6.9410   -0.2732   -1.6792 O   0  0  0  0  0  0  0  0  0  0  0  0
    5.5472   -0.0410   -3.4679 O   0  0  0  0  0  0  0  0  0  0  0  0
    1.6433   -2.6781    2.0998 O   0  0  0  0  0  0  0  0  0  0  0  0
    1.9473    2.4500    2.3344 O   0  0  0  0  0  0  0  0  0  0  0  0
   -5.4143   -4.6226    0.6555 O   0  0  0  0  0  0  0  0  0  0  0  0
   -4.1251    1.8275   -2.0404 O   0  0  0  0  0  0  0  0  0  0  0  0
   -6.1271   -2.7748   -1.2936 O   0  0  0  0  0  0  0  0  0  0  0  0
   -5.7363    3.8265   -0.9773 O   0  0  0  0  0  0  0  0  0  0  0  0
    4.6379   -0.1282   -1.2271 C   0  0  0  0  0  0  0  0  0  0  0  0
    3.6527   -1.4409    0.7343 C   0  0  1  0  0  0  0  0  0  0  0  0
    3.8014    1.1154    0.8466 C   0  0  2  0  0  0  0  0  0  0  0  0
    4.6537   -1.4377   -0.4287 C   0  0  0  0  0  0  0  0  0  0  0  0
    4.7982    1.0979   -0.3204 C   0  0  0  0  0  0  0  0  0  0  0  0
    3.7873   -0.2032    1.6307 C   0  0  0  0  0  0  0  0  0  0  0  0
    5.7251   -0.1382   -2.2628 C   0  0  0  0  0  0  0  0  0  0  0  0
    1.4224   -2.1551    1.0191 C   0  0  0  0  0  0  0  0  0  0  0  0
    1.6692    2.0556    1.2131 C   0  0  0  0  0  0  0  0  0  0  0  0
    0.1105   -2.1202    0.3337 C   0  0  0  0  0  0  0  0  0  0  0  0
    0.3627    2.2326    0.5395 C   0  0  0  0  0  0  0  0  0  0  0  0
   -0.9521   -2.6988    0.9111 C   0  0  0  0  0  0  0  0  0  0  0  0
   -0.6274    2.8739    1.1766 C   0  0  0  0  0  0  0  0  0  0  0  0
   -2.3082   -2.7218    0.3351 C   0  0  0  0  0  0  0  0  0  0  0  0
   -1.9648    3.1213    0.6098 C   0  0  0  0  0  0  0  0  0  0  0  0
   -3.2346   -3.6699    0.7696 C   0  0  0  0  0  0  0  0  0  0  0  0
   -2.4226    2.3511   -0.4593 C   0  0  0  0  0  0  0  0  0  0  0  0
   -2.6657   -1.7952   -0.6443 C   0  0  0  0  0  0  0  0  0  0  0  0
   -2.7732    4.1256    1.1423 C   0  0  0  0  0  0  0  0  0  0  0  0
   -4.5184   -3.6913    0.2247 C   0  0  0  0  0  0  0  0  0  0  0  0
   -3.6889    2.5849   -0.9956 C   0  0  0  0  0  0  0  0  0  0  0  0
   -3.9495   -1.8169   -1.1894 C   0  0  0  0  0  0  0  0  0  0  0  0
   -4.0393    4.3597    0.6058 C   0  0  0  0  0  0  0  0  0  0  0  0
   -4.8760   -2.7649   -0.7548 C   0  0  0  0  0  0  0  0  0  0  0  0
   -4.4972    3.5893   -0.4631 C   0  0  0  0  0  0  0  0  0  0  0  0
    3.8743   -2.3457    1.3168 H   0  0  0  0  0  0  0  0  0  0  0  0
    4.1277    1.9301    1.5077 H   0  0  0  0  0  0  0  0  0  0  0  0
    4.4175   -2.2754   -1.0979 H   0  0  0  0  0  0  0  0  0  0  0  0
    5.6548   -1.6229   -0.0196 H   0  0  0  0  0  0  0  0  0  0  0  0
    4.6564    2.0092   -0.9164 H   0  0  0  0  0  0  0  0  0  0  0  0
    5.8138    1.1345    0.0933 H   0  0  0  0  0  0  0  0  0  0  0  0
    2.9488   -0.1803    2.3368 H   0  0  0  0  0  0  0  0  0  0  0  0
    3.2969   -0.8366   -2.4684 H   0  0  0  0  0  0  0  0  0  0  0  0
    4.9106   -1.1231    2.9388 H   0  0  0  0  0  0  0  0  0  0  0  0
    7.6656   -0.2831   -2.3402 H   0  0  0  0  0  0  0  0  0  0  0  0
    0.0707   -1.6256   -0.6299 H   0  0  0  0  0  0  0  0  0  0  0  0
    0.2717    1.8431   -0.4677 H   0  0  0  0  0  0  0  0  0  0  0  0
   -0.8476   -3.2012    1.8701 H   0  0  0  0  0  0  0  0  0  0  0  0
   -0.4694    3.2658    2.1788 H   0  0  0  0  0  0  0  0  0  0  0  0
   -2.9591   -4.3953    1.5322 H   0  0  0  0  0  0  0  0  0  0  0  0
   -1.8242    1.5503   -0.8839 H   0  0  0  0  0  0  0  0  0  0  0  0
   -1.9837   -1.0292   -1.0005 H   0  0  0  0  0  0  0  0  0  0  0  0
   -2.4322    4.7365    1.9747 H   0  0  0  0  0  0  0  0  0  0  0  0
   -4.2169   -1.0905   -1.9515 H   0  0  0  0  0  0  0  0  0  0  0  0
   -4.6587    5.1453    1.0303 H   0  0  0  0  0  0  0  0  0  0  0  0
   -4.9932   -5.1783    1.3336 H   0  0  0  0  0  0  0  0  0  0  0  0
   -3.4259    1.2001   -2.2917 H   0  0  0  0  0  0  0  0  0  0  0  0
   -6.1935   -2.0632   -1.9533 H   0  0  0  0  0  0  0  0  0  0  0  0
   -6.1497    4.5557   -0.4839 H   0  0  0  0  0  0  0  0  0  0  0  0
  1 14  1  0  0  0  0
  1 20  1  0  0  0  0
  2 15  1  0  0  0  0
  2 21  1  0  0  0  0
  3 13  1  0  0  0  0
  3 45  1  0  0  0  0
  4 18  1  0  0  0  0
  4 46  1  0  0  0  0
  5 19  1  0  0  0  0
  5 47  1  0  0  0  0
  6 19  2  0  0  0  0
  7 20  2  0  0  0  0
  8 21  2  0  0  0  0
  9 32  1  0  0  0  0
  9 58  1  0  0  0  0
 10 33  1  0  0  0  0
 10 59  1  0  0  0  0
 11 36  1  0  0  0  0
 11 60  1  0  0  0  0
 12 37  1  0  0  0  0
 12 61  1  0  0  0  0
 13 16  1  0  0  0  0
 13 17  1  0  0  0  0
 13 19  1  0  0  0  0
 14 16  1  0  0  0  0
 14 18  1  0  0  0  0
 14 38  1  0  0  0  0
 15 17  1  0  0  0  0
 15 18  1  0  0  0  0
 15 39  1  0  0  0  0
 16 40  1  0  0  0  0
 16 41  1  0  0  0  0
 17 42  1  0  0  0  0
 17 43  1  0  0  0  0
 18 44  1  0  0  0  0
 20 22  1  0  0  0  0
 21 23  1  0  0  0  0
 22 24  2  0  0  0  0
 22 48  1  0  0  0  0
 23 25  2  0  0  0  0
 23 49  1  0  0  0  0
 24 26  1  0  0  0  0
 24 50  1  0  0  0  0
 25 27  1  0  0  0  0
 25 51  1  0  0  0  0
 26 28  2  0  0  0  0
 26 30  1  0  0  0  0
 27 29  2  0  0  0  0
 27 31  1  0  0  0  0
 28 32  1  0  0  0  0
 28 52  1  0  0  0  0
 29 33  1  0  0  0  0
 29 53  1  0  0  0  0
 30 34  2  0  0  0  0
 30 54  1  0  0  0  0
 31 35  2  0  0  0  0
 31 55  1  0  0  0  0
 32 36  2  0  0  0  0
 33 37  2  0  0  0  0
 34 36  1  0  0  0  0
 34 56  1  0  0  0  0
 35 37  1  0  0  0  0
 35 57  1  0  0  0  0
M  END
> <PUBCHEM_COMPOUND_CID>
13604687

> <PUBCHEM_CONFORMER_RMSD>
1.2

> <PUBCHEM_CONFORMER_DIVERSEORDER>
3
19
89
80
81
48
13
75
123
67
106
134
36
83
31
6
129
119
82
88
57
68
100
11
42
55
45
77
140
118
78
139
49
102
121
137
73
133
9
29
125
143
122
90
131
93
52
35
47
21
97
71
7
127
37
34
32
76
50
10
117
56
1
61
39
104
113
27
98
25
84
105
135
70
92
23
115
138
107
124
95
59
66
111
62
79
94
51
112
43
142
22
26
69
17
33
53
74
132
120
63
44
72
38
136
18
14
109
28
141
65
99
110
86
116
24
85
114
40
96
2
144
128
16
12
41
54
60
130
5
108
103
126
64
91
87
58
101
20
4
15
30
46
8

> <PUBCHEM_MMFF94_PARTIAL_CHARGES>
52
1 -0.43
10 -0.53
11 -0.53
12 -0.53
13 0.34
14 0.28
15 0.28
18 0.28
19 0.66
2 -0.43
20 0.71
21 0.71
22 -0.14
23 -0.14
24 -0.18
25 -0.18
26 0.03
27 0.03
28 -0.15
29 -0.15
3 -0.68
30 -0.15
31 -0.15
32 0.08
33 0.08
34 -0.15
35 -0.15
36 0.08
37 0.08
4 -0.68
45 0.4
46 0.4
47 0.5
48 0.15
49 0.15
5 -0.65
50 0.15
51 0.15
52 0.15
53 0.15
54 0.15
55 0.15
56 0.15
57 0.15
58 0.45
59 0.45
6 -0.57
60 0.45
61 0.45
7 -0.57
8 -0.57
9 -0.53

> <PUBCHEM_EFFECTIVE_ROTOR_COUNT>
10.2

> <PUBCHEM_PHARMACOPHORE_FEATURES>
16
1 10 donor
1 11 donor
1 12 donor
1 3 acceptor
1 3 donor
1 4 acceptor
1 4 donor
1 5 acceptor
1 6 acceptor
1 7 acceptor
1 8 acceptor
1 9 donor
3 5 6 19 anion
6 13 14 15 16 17 18 rings
6 26 28 30 32 34 36 rings
6 27 29 31 33 35 37 rings

> <PUBCHEM_HEAVY_ATOM_COUNT>
37

> <PUBCHEM_ATOM_DEF_STEREO_COUNT>
0

> <PUBCHEM_ATOM_UDEF_STEREO_COUNT>
2

> <PUBCHEM_BOND_DEF_STEREO_COUNT>
2

> <PUBCHEM_BOND_UDEF_STEREO_COUNT>
0

> <PUBCHEM_ISOTOPIC_ATOM_COUNT>
0

> <PUBCHEM_COMPONENT_COUNT>
1

> <PUBCHEM_CACTVS_TAUTO_COUNT>
27

> <PUBCHEM_CONFORMER_ID>
00CF974F00000003

> <PUBCHEM_MMFF94_ENERGY>
95.4153

> <PUBCHEM_FEATURE_SELFOVERLAP>
81.279

> <PUBCHEM_SHAPE_FINGERPRINT>
10169797 241 18128525154219654464
10190206 1 17897745369027133324
10462674 369 17317613419595501123
10670039 82 18335427893564952726
1100329 8 18050549760667309875
11621639 254 17683563810797643828
11991303 11 18187649047109732413
12788726 201 18263361554651460570
13690498 29 18271536384912359350
14289585 56 18130231561268642319
14681490 219 18268142248547245899
14932702 115 18200861890756036297
15001296 14 18263638623245206001
150020 26 17179959048555692235
15264996 19 18335149670031245381
15484559 13 17624123911251434701
15781502 685 18333737940431168398
15968369 153 18058426846979110757
16067689 391 17487066561444970406
19311894 1 18128553582381463136
20764821 26 18265032662318271089
20775438 99 17913187794289002991
21304303 94 17981616966080386180
21772528 278 18124884460935768285
244849 19 17775275076397390752
24941158 1 16270777091908780248
3052486 1 18335414643695936960
354706 132 18262242118818384524
4058900 60 17835808495749495285
4066623 53 18194690482497800732
46194498 28 17916877945007441054
463206 1 18197483056916579177
508706 21 18411978087681466027

> <PUBCHEM_SHAPE_MULTIPOLES>
691.01
14.77
6.73
2.15
6.52
1.08
-0.84
-2.76
-8.12
-16.04
1.81
3.38
0.19
0.55

> <PUBCHEM_SHAPE_SELFOVERLAP>
1485.874

> <PUBCHEM_SHAPE_VOLUME>
375.7

> <PUBCHEM_COORDINATE_TYPE>
2
5
10

$$$$
