11699888
  -OEChem-09122013593D

 74 76  0     1  0  0  0  0  0999 V2000
   -1.5228   -1.1790   -1.1710 O   0  0  0  0  0  0  0  0  0  0  0  0
    2.7204   -0.7004   -0.7505 O   0  0  0  0  0  0  0  0  0  0  0  0
   -0.7834   -2.2137    1.3578 O   0  0  0  0  0  0  0  0  0  0  0  0
    0.6612   -0.3568   -2.6650 O   0  0  0  0  0  0  0  0  0  0  0  0
    1.0581   -5.1653    0.7766 O   0  0  0  0  0  0  0  0  0  0  0  0
   -0.3544   -4.4871    2.4742 O   0  0  0  0  0  0  0  0  0  0  0  0
   -3.2887   -2.1588   -2.2932 O   0  0  0  0  0  0  0  0  0  0  0  0
    2.5958    0.6698    1.1054 O   0  0  0  0  0  0  0  0  0  0  0  0
   -9.3325    1.4925    0.1013 O   0  0  0  0  0  0  0  0  0  0  0  0
   -5.5028    4.2386    0.9554 O   0  0  0  0  0  0  0  0  0  0  0  0
   -8.2413    3.8433    1.0782 O   0  0  0  0  0  0  0  0  0  0  0  0
    9.4679    3.4599    1.8794 O   0  0  0  0  0  0  0  0  0  0  0  0
   10.5274    3.0919   -0.6630 O   0  0  0  0  0  0  0  0  0  0  0  0
    0.0820   -3.0452    0.5932 C   0  0  1  0  0  0  0  0  0  0  0  0
   -0.6257   -2.1589   -1.6949 C   0  0  2  0  0  0  0  0  0  0  0  0
    1.3897   -1.1623   -0.5178 C   0  0  2  0  0  0  0  0  0  0  0  0
   -0.5765   -3.3693   -0.7559 C   0  0  0  0  0  0  0  0  0  0  0  0
    1.4459   -2.3743    0.4166 C   0  0  0  0  0  0  0  0  0  0  0  0
    0.7615   -1.5330   -1.8629 C   0  0  2  0  0  0  0  0  0  0  0  0
    0.2162   -4.2987    1.4084 C   0  0  0  0  0  0  0  0  0  0  0  0
   -2.8250   -1.3036   -1.5557 C   0  0  0  0  0  0  0  0  0  0  0  0
    3.1926    0.2152    0.1423 C   0  0  0  0  0  0  0  0  0  0  0  0
    1.2776   -6.4095    1.4489 C   0  0  0  0  0  0  0  0  0  0  0  0
   -3.5930   -0.2091   -0.9199 C   0  0  0  0  0  0  0  0  0  0  0  0
    4.5719    0.5719   -0.2604 C   0  0  0  0  0  0  0  0  0  0  0  0
    2.2275   -7.2536    0.6263 C   0  0  0  0  0  0  0  0  0  0  0  0
   -4.9110   -0.1099   -1.1446 C   0  0  0  0  0  0  0  0  0  0  0  0
    5.2616    1.4646    0.4640 C   0  0  0  0  0  0  0  0  0  0  0  0
   -5.7833    0.9255   -0.5630 C   0  0  0  0  0  0  0  0  0  0  0  0
    6.6410    1.8926    0.1718 C   0  0  0  0  0  0  0  0  0  0  0  0
   -5.2300    2.1083   -0.0721 C   0  0  0  0  0  0  0  0  0  0  0  0
   -7.1621    0.7230   -0.5030 C   0  0  0  0  0  0  0  0  0  0  0  0
    7.4154    2.4807    1.1718 C   0  0  0  0  0  0  0  0  0  0  0  0
    7.1725    1.7092   -1.1047 C   0  0  0  0  0  0  0  0  0  0  0  0
   -7.9877    1.7030    0.0478 C   0  0  0  0  0  0  0  0  0  0  0  0
   -6.0556    3.0883    0.4789 C   0  0  0  0  0  0  0  0  0  0  0  0
   -7.4344    2.8856    0.5390 C   0  0  0  0  0  0  0  0  0  0  0  0
    8.7214    2.8855    0.8955 C   0  0  0  0  0  0  0  0  0  0  0  0
    8.4785    2.1142   -1.3812 C   0  0  0  0  0  0  0  0  0  0  0  0
    9.2529    2.7022   -0.3811 C   0  0  0  0  0  0  0  0  0  0  0  0
   -9.8430    0.8564    1.2713 C   0  0  0  0  0  0  0  0  0  0  0  0
   -4.0859    4.3663    0.8559 C   0  0  0  0  0  0  0  0  0  0  0  0
   -0.9668   -2.4760   -2.6891 H   0  0  0  0  0  0  0  0  0  0  0  0
    0.7909   -0.3589   -0.0681 H   0  0  0  0  0  0  0  0  0  0  0  0
   -0.0270   -4.1716   -1.2645 H   0  0  0  0  0  0  0  0  0  0  0  0
   -1.5959   -3.7389   -0.5864 H   0  0  0  0  0  0  0  0  0  0  0  0
    1.8346   -2.0540    1.3922 H   0  0  0  0  0  0  0  0  0  0  0  0
    2.1892   -3.0819    0.0255 H   0  0  0  0  0  0  0  0  0  0  0  0
    1.4258   -2.2251   -2.3955 H   0  0  0  0  0  0  0  0  0  0  0  0
   -1.6692   -2.6152    1.3663 H   0  0  0  0  0  0  0  0  0  0  0  0
    0.2638   -0.6148   -3.5141 H   0  0  0  0  0  0  0  0  0  0  0  0
    0.3229   -6.9342    1.5664 H   0  0  0  0  0  0  0  0  0  0  0  0
    1.7121   -6.2189    2.4366 H   0  0  0  0  0  0  0  0  0  0  0  0
   -3.0431    0.4592   -0.2679 H   0  0  0  0  0  0  0  0  0  0  0  0
    4.9772    0.0685   -1.1305 H   0  0  0  0  0  0  0  0  0  0  0  0
    2.4180   -8.2146    1.1123 H   0  0  0  0  0  0  0  0  0  0  0  0
    3.1807   -6.7335    0.4846 H   0  0  0  0  0  0  0  0  0  0  0  0
    1.8145   -7.4371   -0.3711 H   0  0  0  0  0  0  0  0  0  0  0  0
   -5.4121   -0.8302   -1.7872 H   0  0  0  0  0  0  0  0  0  0  0  0
    4.8120    1.9192    1.3438 H   0  0  0  0  0  0  0  0  0  0  0  0
   -4.1607    2.2519   -0.1570 H   0  0  0  0  0  0  0  0  0  0  0  0
   -7.6039   -0.1960   -0.8823 H   0  0  0  0  0  0  0  0  0  0  0  0
    7.0050    2.6244    2.1691 H   0  0  0  0  0  0  0  0  0  0  0  0
    6.6007    1.2746   -1.9191 H   0  0  0  0  0  0  0  0  0  0  0  0
    8.8791    1.9695   -2.3810 H   0  0  0  0  0  0  0  0  0  0  0  0
   -7.6844    4.5878    1.3650 H   0  0  0  0  0  0  0  0  0  0  0  0
    8.9382    3.5059    2.6938 H   0  0  0  0  0  0  0  0  0  0  0  0
   10.7231    2.8864   -1.5933 H   0  0  0  0  0  0  0  0  0  0  0  0
   -9.4190   -0.1471    1.3778 H   0  0  0  0  0  0  0  0  0  0  0  0
   -9.6238    1.4536    2.1621 H   0  0  0  0  0  0  0  0  0  0  0  0
  -10.9279    0.7683    1.1677 H   0  0  0  0  0  0  0  0  0  0  0  0
   -3.8203    5.3366    1.2888 H   0  0  0  0  0  0  0  0  0  0  0  0
   -3.7537    4.3857   -0.1878 H   0  0  0  0  0  0  0  0  0  0  0  0
   -3.5673    3.6047    1.4483 H   0  0  0  0  0  0  0  0  0  0  0  0
  1 15  1  0  0  0  0
  1 21  1  0  0  0  0
  2 16  1  0  0  0  0
  2 22  1  0  0  0  0
  3 14  1  0  0  0  0
  3 50  1  0  0  0  0
  4 19  1  0  0  0  0
  4 51  1  0  0  0  0
  5 20  1  0  0  0  0
  5 23  1  0  0  0  0
  6 20  2  0  0  0  0
  7 21  2  0  0  0  0
  8 22  2  0  0  0  0
  9 35  1  0  0  0  0
  9 41  1  0  0  0  0
 10 36  1  0  0  0  0
 10 42  1  0  0  0  0
 11 37  1  0  0  0  0
 11 66  1  0  0  0  0
 12 38  1  0  0  0  0
 12 67  1  0  0  0  0
 13 40  1  0  0  0  0
 13 68  1  0  0  0  0
 14 17  1  0  0  0  0
 14 18  1  0  0  0  0
 14 20  1  0  0  0  0
 15 17  1  0  0  0  0
 15 19  1  0  0  0  0
 15 43  1  0  0  0  0
 16 18  1  0  0  0  0
 16 19  1  0  0  0  0
 16 44  1  0  0  0  0
 17 45  1  0  0  0  0
 17 46  1  0  0  0  0
 18 47  1  0  0  0  0
 18 48  1  0  0  0  0
 19 49  1  0  0  0  0
 21 24  1  0  0  0  0
 22 25  1  0  0  0  0
 23 26  1  0  0  0  0
 23 52  1  0  0  0  0
 23 53  1  0  0  0  0
 24 27  2  0  0  0  0
 24 54  1  0  0  0  0
 25 28  2  0  0  0  0
 25 55  1  0  0  0  0
 26 56  1  0  0  0  0
 26 57  1  0  0  0  0
 26 58  1  0  0  0  0
 27 29  1  0  0  0  0
 27 59  1  0  0  0  0
 28 30  1  0  0  0  0
 28 60  1  0  0  0  0
 29 31  2  0  0  0  0
 29 32  1  0  0  0  0
 30 33  2  0  0  0  0
 30 34  1  0  0  0  0
 31 36  1  0  0  0  0
 31 61  1  0  0  0  0
 32 35  2  0  0  0  0
 32 62  1  0  0  0  0
 33 38  1  0  0  0  0
 33 63  1  0  0  0  0
 34 39  2  0  0  0  0
 34 64  1  0  0  0  0
 35 37  1  0  0  0  0
 36 37  2  0  0  0  0
 38 40  2  0  0  0  0
 39 40  1  0  0  0  0
 39 65  1  0  0  0  0
 41 69  1  0  0  0  0
 41 70  1  0  0  0  0
 41 71  1  0  0  0  0
 42 72  1  0  0  0  0
 42 73  1  0  0  0  0
 42 74  1  0  0  0  0
M  END
> <PUBCHEM_COMPOUND_CID>
11699888

> <PUBCHEM_CONFORMER_RMSD>
1.4

> <PUBCHEM_CONFORMER_DIVERSEORDER>
1
6
12
13
9
5
11
7
8
10
3
2
4

> <PUBCHEM_MMFF94_PARTIAL_CHARGES>
53
1 -0.43
10 -0.36
11 -0.53
12 -0.53
13 -0.53
14 0.34
15 0.28
16 0.28
19 0.28
2 -0.43
20 0.66
21 0.71
22 0.71
23 0.28
24 -0.14
25 -0.14
27 -0.18
28 -0.18
29 0.03
3 -0.68
30 0.03
31 -0.15
32 -0.15
33 -0.15
34 -0.15
35 0.08
36 0.08
37 0.08
38 0.08
39 -0.15
4 -0.68
40 0.08
41 0.28
42 0.28
5 -0.43
50 0.4
51 0.4
54 0.15
55 0.15
59 0.15
6 -0.57
60 0.15
61 0.15
62 0.15
63 0.15
64 0.15
65 0.15
66 0.45
67 0.45
68 0.45
7 -0.57
8 -0.57
9 -0.36

> <PUBCHEM_EFFECTIVE_ROTOR_COUNT>
14.2

> <PUBCHEM_PHARMACOPHORE_FEATURES>
15
1 10 acceptor
1 11 donor
1 12 donor
1 13 donor
1 3 acceptor
1 3 donor
1 4 acceptor
1 4 donor
1 6 acceptor
1 7 acceptor
1 8 acceptor
1 9 acceptor
6 14 15 16 17 18 19 rings
6 29 31 32 35 36 37 rings
6 30 33 34 38 39 40 rings

> <PUBCHEM_HEAVY_ATOM_COUNT>
42

> <PUBCHEM_ATOM_DEF_STEREO_COUNT>
4

> <PUBCHEM_ATOM_UDEF_STEREO_COUNT>
0

> <PUBCHEM_BOND_DEF_STEREO_COUNT>
2

> <PUBCHEM_BOND_UDEF_STEREO_COUNT>
0

> <PUBCHEM_ISOTOPIC_ATOM_COUNT>
0

> <PUBCHEM_COMPONENT_COUNT>
1

> <PUBCHEM_CACTVS_TAUTO_COUNT>
20

> <PUBCHEM_CONFORMER_ID>
00B286B000000001

> <PUBCHEM_MMFF94_ENERGY>
126.6504

> <PUBCHEM_FEATURE_SELFOVERLAP>
76.147

> <PUBCHEM_SHAPE_FINGERPRINT>
10920273 25 18335708251660444020
10939801 23 18343301423602082917
11181472 205 18408884075901490956
1200032 147 18260826003934527986
12988421 55 18187632618226777470
13008946 119 18339639040052532946
13008946 335 18187087256080335730
13726171 33 17988651736339042753
15444296 121 18116994584269108932
16992610 120 18409458007748581148
19304152 47 18260831488597779973
20505436 4 18272645749485977671
21057603 192 18122630710875251147
23522609 53 17097786918531999028
23523788 1 14490747906213009859
23729398 52 18192149288099817554
25242607 90 8862943857837924140
44802255 64 17203328969701886863
44880568 143 18057039336689144884
4516262 110 18335690612582661727
508180 173 17560515235275847688
5776283 40 18130784594190101857
6673363 416 17917709154545281901
6691757 9 17750503156638511670
6698420 124 18408320013002653730
6703917 75 18262802998571415518
9896288 288 18265050421734941311

> <PUBCHEM_SHAPE_MULTIPOLES>
788.04
31.35
8.75
1.83
17.05
16.05
0.34
-61.98
-5.5
4.6
-5.64
0.38
1.11
-2.38

> <PUBCHEM_SHAPE_SELFOVERLAP>
1672.277

> <PUBCHEM_SHAPE_VOLUME>
436.8

> <PUBCHEM_COORDINATE_TYPE>
2
5
10

$$$$
