62331
  -OEChem-09122013563D

 43 46  0     0  0  0  0  0  0999 V2000
   -3.2632   -3.0279    0.4542 O   0  0  0  0  0  0  0  0  0  0  0  0
   -2.1080   -0.5194    0.3414 N   0  0  0  0  0  0  0  0  0  0  0  0
   -1.6689   -0.5433   -0.8299 N   0  0  0  0  0  0  0  0  0  0  0  0
    3.8956   -0.0481   -0.7635 N   0  0  0  0  0  0  0  0  0  0  0  0
    4.3026    0.0522    0.4178 N   0  0  0  0  0  0  0  0  0  0  0  0
   -4.3332    0.4900    0.2526 C   0  0  0  0  0  0  0  0  0  0  0  0
   -5.7385    0.3230    0.2383 C   0  0  0  0  0  0  0  0  0  0  0  0
   -3.5077   -0.6438    0.3252 C   0  0  0  0  0  0  0  0  0  0  0  0
   -6.2768   -0.9728    0.2967 C   0  0  0  0  0  0  0  0  0  0  0  0
   -3.7950    1.7859    0.1937 C   0  0  0  0  0  0  0  0  0  0  0  0
   -4.0597   -1.9239    0.3831 C   0  0  0  0  0  0  0  0  0  0  0  0
   -6.5642    1.4567    0.1656 C   0  0  0  0  0  0  0  0  0  0  0  0
   -5.4416   -2.0881    0.3686 C   0  0  0  0  0  0  0  0  0  0  0  0
   -4.6304    2.9010    0.1222 C   0  0  0  0  0  0  0  0  0  0  0  0
   -6.0124    2.7369    0.1082 C   0  0  0  0  0  0  0  0  0  0  0  0
   -0.2692   -0.4188   -0.8140 C   0  0  0  0  0  0  0  0  0  0  0  0
    0.3124    0.8441   -0.8708 C   0  0  0  0  0  0  0  0  0  0  0  0
    0.5248   -1.5590   -0.7406 C   0  0  0  0  0  0  0  0  0  0  0  0
    2.5025   -0.1719   -0.7800 C   0  0  0  0  0  0  0  0  0  0  0  0
    1.7016    0.9677   -0.8535 C   0  0  0  0  0  0  0  0  0  0  0  0
    1.9141   -1.4353   -0.7235 C   0  0  0  0  0  0  0  0  0  0  0  0
    5.7025    0.1764    0.4349 C   0  0  0  0  0  0  0  0  0  0  0  0
    6.2842    1.4389    0.3778 C   0  0  0  0  0  0  0  0  0  0  0  0
    6.4958   -0.9641    0.5083 C   0  0  0  0  0  0  0  0  0  0  0  0
    7.6735    1.5621    0.3944 C   0  0  0  0  0  0  0  0  0  0  0  0
    7.8851   -0.8409    0.5249 C   0  0  0  0  0  0  0  0  0  0  0  0
    8.4741    0.4222    0.4680 C   0  0  0  0  0  0  0  0  0  0  0  0
   -7.3542   -1.1248    0.2868 H   0  0  0  0  0  0  0  0  0  0  0  0
   -2.7219    1.9598    0.2083 H   0  0  0  0  0  0  0  0  0  0  0  0
   -7.6472    1.3520    0.1533 H   0  0  0  0  0  0  0  0  0  0  0  0
   -5.8777   -3.0825    0.4132 H   0  0  0  0  0  0  0  0  0  0  0  0
   -4.2017    3.8980    0.0787 H   0  0  0  0  0  0  0  0  0  0  0  0
   -6.6621    3.6054    0.0527 H   0  0  0  0  0  0  0  0  0  0  0  0
   -0.3034    1.7374   -0.9300 H   0  0  0  0  0  0  0  0  0  0  0  0
    0.0746   -2.5471   -0.6971 H   0  0  0  0  0  0  0  0  0  0  0  0
    2.1507    1.9565   -0.8991 H   0  0  0  0  0  0  0  0  0  0  0  0
    2.5296   -2.3293   -0.6669 H   0  0  0  0  0  0  0  0  0  0  0  0
   -2.3353   -2.7353    0.4555 H   0  0  0  0  0  0  0  0  0  0  0  0
    5.6681    2.3322    0.3210 H   0  0  0  0  0  0  0  0  0  0  0  0
    6.0453   -1.9520    0.5536 H   0  0  0  0  0  0  0  0  0  0  0  0
    8.1321    2.5457    0.3502 H   0  0  0  0  0  0  0  0  0  0  0  0
    8.5083   -1.7284    0.5822 H   0  0  0  0  0  0  0  0  0  0  0  0
    9.5558    0.5181    0.4811 H   0  0  0  0  0  0  0  0  0  0  0  0
  1 11  1  0  0  0  0
  1 38  1  0  0  0  0
  2  3  2  0  0  0  0
  2  8  1  0  0  0  0
  3 16  1  0  0  0  0
  4  5  2  0  0  0  0
  4 19  1  0  0  0  0
  5 22  1  0  0  0  0
  6  7  1  0  0  0  0
  6  8  1  0  0  0  0
  6 10  2  0  0  0  0
  7  9  1  0  0  0  0
  7 12  2  0  0  0  0
  8 11  2  0  0  0  0
  9 13  2  0  0  0  0
  9 28  1  0  0  0  0
 10 14  1  0  0  0  0
 10 29  1  0  0  0  0
 11 13  1  0  0  0  0
 12 15  1  0  0  0  0
 12 30  1  0  0  0  0
 13 31  1  0  0  0  0
 14 15  2  0  0  0  0
 14 32  1  0  0  0  0
 15 33  1  0  0  0  0
 16 17  2  0  0  0  0
 16 18  1  0  0  0  0
 17 20  1  0  0  0  0
 17 34  1  0  0  0  0
 18 21  2  0  0  0  0
 18 35  1  0  0  0  0
 19 20  2  0  0  0  0
 19 21  1  0  0  0  0
 20 36  1  0  0  0  0
 21 37  1  0  0  0  0
 22 23  2  0  0  0  0
 22 24  1  0  0  0  0
 23 25  1  0  0  0  0
 23 39  1  0  0  0  0
 24 26  2  0  0  0  0
 24 40  1  0  0  0  0
 25 27  2  0  0  0  0
 25 41  1  0  0  0  0
 26 27  1  0  0  0  0
 26 42  1  0  0  0  0
 27 43  1  0  0  0  0
M  END
> <PUBCHEM_COMPOUND_CID>
62331

> <PUBCHEM_CONFORMER_RMSD>
0.8

> <PUBCHEM_CONFORMER_DIVERSEORDER>
2
1
6
4
5
3

> <PUBCHEM_MMFF94_PARTIAL_CHARGES>
41
1 -0.53
10 -0.15
11 0.08
12 -0.15
13 -0.15
14 -0.15
15 -0.15
16 0.18
17 -0.15
18 -0.15
19 0.18
2 -0.18
20 -0.15
21 -0.15
22 0.18
23 -0.15
24 -0.15
25 -0.15
26 -0.15
27 -0.15
28 0.15
29 0.15
3 -0.18
30 0.15
31 0.15
32 0.15
33 0.15
34 0.15
35 0.15
36 0.15
37 0.15
38 0.45
39 0.15
4 -0.18
40 0.15
41 0.15
42 0.15
43 0.15
5 -0.18
8 0.18
9 -0.15

> <PUBCHEM_EFFECTIVE_ROTOR_COUNT>
4

> <PUBCHEM_PHARMACOPHORE_FEATURES>
5
1 1 donor
6 16 17 18 19 20 21 rings
6 22 23 24 25 26 27 rings
6 6 7 10 12 14 15 rings
6 6 7 8 9 11 13 rings

> <PUBCHEM_HEAVY_ATOM_COUNT>
27

> <PUBCHEM_ATOM_DEF_STEREO_COUNT>
0

> <PUBCHEM_ATOM_UDEF_STEREO_COUNT>
0

> <PUBCHEM_BOND_DEF_STEREO_COUNT>
0

> <PUBCHEM_BOND_UDEF_STEREO_COUNT>
0

> <PUBCHEM_ISOTOPIC_ATOM_COUNT>
0

> <PUBCHEM_COMPONENT_COUNT>
1

> <PUBCHEM_CACTVS_TAUTO_COUNT>
3

> <PUBCHEM_CONFORMER_ID>
0000F37B00000002

> <PUBCHEM_MMFF94_ENERGY>
81.4735

> <PUBCHEM_FEATURE_SELFOVERLAP>
25.4

> <PUBCHEM_SHAPE_FINGERPRINT>
10 15 18272089417939190110
10066227 49 10665492021440665736
100830 39 18410009901369647761
10100884 174 17972315385178344723
10299344 5 17967533476475323290
10319926 262 18340757225965464224
10666366 153 17988371382548977262
10835480 77 18200876175859459829
11315181 36 18113617915419534903
11991303 11 16415189126876224140
12013929 2 18339079286071178806
12013929 94 18118127098642319962
12596602 18 18408602574305007728
13403585 85 18412827993158750641
13668630 136 11386359328084583200
13885169 127 18408885135602430194
13911987 19 16630524004104897949
14251764 18 18186803595349717492
14347424 109 18410285884232518034
14394314 77 18114180792185075553
14849402 71 18042692874251703900
14933364 13 18412262844361337544
15021287 119 16515688844424610765
15183329 4 14418130725639709152
15301273 46 18342462522078508582
15461852 350 17775560966410272549
16989713 51 17130696370270574791
17093844 174 18260546727960051257
17780758 139 18260266373980412767
18603816 31 14273749481868428449
2026 5 12251895988670184400
20281389 69 18131348635787174808
21130935 74 18334294258538373034
21150785 3 11239994560371166084
21792961 116 17417817206572783184
22224240 67 18335417985207236922
23081809 10 17604160306221814366
23522609 53 17532116967339091636
23559900 14 18198914600208698591
2838139 119 15123508116751402562
312425 54 17967812747986345898
3383291 50 17676778672823838755
3411729 13 18341612565020061190
3663271 9 18261107470289746346
4073 2 18259990396556949978
44317340 157 11747231177477086246
5028188 123 18337117852217622614
504843 32 16773508962250890223
5104073 3 18338245843135338651
54039377 194 11095870598073315709
5758199 1 17822010913458080690
58083652 198 15719396169575048956
58260988 114 15647634370989870491
636775 72 18201441312474241473
9831232 110 18200605701112160014
9953998 17 18334295349406999925
9981440 41 18334868191081808059
999808 66 9727342567950980285

> <PUBCHEM_SHAPE_MULTIPOLES>
529.85
24.82
2.57
0.88
35.75
0.35
-0.11
6.73
7.29
-4.87
0.27
0.38
-0.07
0.47

> <PUBCHEM_SHAPE_SELFOVERLAP>
1179.956

> <PUBCHEM_SHAPE_VOLUME>
282.4

> <PUBCHEM_COORDINATE_TYPE>
2
5
10

$$$$
