101434718
  -OEChem-09122012553D

 52 54  0     1  0  0  0  0  0999 V2000
   -2.7939   -2.9103    0.5089 O   0  0  0  0  0  0  0  0  0  0  0  0
   -0.3496    1.2871    1.0985 O   0  0  0  0  0  0  0  0  0  0  0  0
    0.8064   -0.7166    0.9308 O   0  0  0  0  0  0  0  0  0  0  0  0
   -2.9559   -2.4765   -2.2599 O   0  0  0  0  0  0  0  0  0  0  0  0
   -4.6586   -0.9129   -0.9233 O   0  0  0  0  0  0  0  0  0  0  0  0
    2.1706    0.2504   -0.6964 O   0  0  0  0  0  0  0  0  0  0  0  0
    3.0410   -0.9142    2.6556 O   0  0  0  0  0  0  0  0  0  0  0  0
    5.5712   -1.1135    1.1591 O   0  0  0  0  0  0  0  0  0  0  0  0
   -4.9828    1.6330    0.9380 O   0  0  0  0  0  0  0  0  0  0  0  0
    5.7540    0.9989   -0.8056 O   0  0  0  0  0  0  0  0  0  0  0  0
   -3.8205    3.5057    0.3283 O   0  0  0  0  0  0  0  0  0  0  0  0
    2.1640    2.0208   -2.7989 O   0  0  0  0  0  0  0  0  0  0  0  0
   -1.5956   -0.8369    0.7519 C   0  0  2  0  0  0  0  0  0  0  0  0
   -1.7876   -2.1040   -0.1180 C   0  0  2  0  0  0  0  0  0  0  0  0
   -2.8911   -0.0338    0.4578 C   0  0  2  0  0  0  0  0  0  0  0  0
   -2.3422   -1.5150   -1.4229 C   0  0  2  0  0  0  0  0  0  0  0  0
   -3.3217   -0.4225   -0.9755 C   0  0  1  0  0  0  0  0  0  0  0  0
   -0.3330    0.0029    0.4597 C   0  0  1  0  0  0  0  0  0  0  0  0
   -2.7071    1.4328    0.6658 C   0  0  0  0  0  0  0  0  0  0  0  0
   -0.5625   -2.9834   -0.3265 C   0  0  0  0  0  0  0  0  0  0  0  0
   -1.5276    1.9719    0.9860 C   0  0  0  0  0  0  0  0  0  0  0  0
    2.0116    0.0121    0.7002 C   0  0  2  0  0  0  0  0  0  0  0  0
    3.1754   -0.8209    1.2376 C   0  0  1  0  0  0  0  0  0  0  0  0
    4.5213   -0.1812    0.8964 C   0  0  2  0  0  0  0  0  0  0  0  0
   -3.8681    2.3231    0.6168 C   0  0  0  0  0  0  0  0  0  0  0  0
    4.5913    0.2059   -0.5809 C   0  0  1  0  0  0  0  0  0  0  0  0
    3.3498    1.0001   -0.9937 C   0  0  1  0  0  0  0  0  0  0  0  0
    3.3411    1.2969   -2.4899 C   0  0  0  0  0  0  0  0  0  0  0  0
   -1.5879   -1.1095    1.8170 H   0  0  0  0  0  0  0  0  0  0  0  0
   -3.6455   -0.3925    1.1735 H   0  0  0  0  0  0  0  0  0  0  0  0
   -1.5323   -1.0458   -1.9947 H   0  0  0  0  0  0  0  0  0  0  0  0
   -3.3039    0.4145   -1.6825 H   0  0  0  0  0  0  0  0  0  0  0  0
   -0.2367    0.1673   -0.6204 H   0  0  0  0  0  0  0  0  0  0  0  0
   -0.1365   -3.2900    0.6353 H   0  0  0  0  0  0  0  0  0  0  0  0
    0.2142   -2.4812   -0.9108 H   0  0  0  0  0  0  0  0  0  0  0  0
   -0.8322   -3.9076   -0.8500 H   0  0  0  0  0  0  0  0  0  0  0  0
   -2.4396   -3.2197    1.3601 H   0  0  0  0  0  0  0  0  0  0  0  0
   -1.3730    3.0134    1.2346 H   0  0  0  0  0  0  0  0  0  0  0  0
    1.9693    0.9661    1.2419 H   0  0  0  0  0  0  0  0  0  0  0  0
   -2.2801   -3.1313   -2.5031 H   0  0  0  0  0  0  0  0  0  0  0  0
   -5.2250   -0.1823   -0.6214 H   0  0  0  0  0  0  0  0  0  0  0  0
    3.1261   -1.8443    0.8472 H   0  0  0  0  0  0  0  0  0  0  0  0
    4.7165    0.6866    1.5373 H   0  0  0  0  0  0  0  0  0  0  0  0
    4.6883   -0.6981   -1.1946 H   0  0  0  0  0  0  0  0  0  0  0  0
    3.2978    1.9578   -0.4580 H   0  0  0  0  0  0  0  0  0  0  0  0
    3.3238    0.3691   -3.0714 H   0  0  0  0  0  0  0  0  0  0  0  0
    4.2088    1.8939   -2.7863 H   0  0  0  0  0  0  0  0  0  0  0  0
    3.0846   -0.0148    3.0228 H   0  0  0  0  0  0  0  0  0  0  0  0
    5.4158   -1.9050    0.6160 H   0  0  0  0  0  0  0  0  0  0  0  0
    5.6713    1.8102   -0.2760 H   0  0  0  0  0  0  0  0  0  0  0  0
   -5.7851    2.1969    0.9151 H   0  0  0  0  0  0  0  0  0  0  0  0
    2.1766    2.1946   -3.7556 H   0  0  0  0  0  0  0  0  0  0  0  0
  1 14  1  0  0  0  0
  1 37  1  0  0  0  0
  2 18  1  0  0  0  0
  2 21  1  0  0  0  0
  3 18  1  0  0  0  0
  3 22  1  0  0  0  0
  4 16  1  0  0  0  0
  4 40  1  0  0  0  0
  5 17  1  0  0  0  0
  5 41  1  0  0  0  0
  6 22  1  0  0  0  0
  6 27  1  0  0  0  0
  7 23  1  0  0  0  0
  7 48  1  0  0  0  0
  8 24  1  0  0  0  0
  8 49  1  0  0  0  0
  9 25  1  0  0  0  0
  9 51  1  0  0  0  0
 10 26  1  0  0  0  0
 10 50  1  0  0  0  0
 11 25  2  0  0  0  0
 12 28  1  0  0  0  0
 12 52  1  0  0  0  0
 13 14  1  0  0  0  0
 13 15  1  0  0  0  0
 13 18  1  0  0  0  0
 13 29  1  0  0  0  0
 14 16  1  0  0  0  0
 14 20  1  0  0  0  0
 15 17  1  0  0  0  0
 15 19  1  0  0  0  0
 15 30  1  0  0  0  0
 16 17  1  0  0  0  0
 16 31  1  0  0  0  0
 17 32  1  0  0  0  0
 18 33  1  0  0  0  0
 19 21  2  0  0  0  0
 19 25  1  0  0  0  0
 20 34  1  0  0  0  0
 20 35  1  0  0  0  0
 20 36  1  0  0  0  0
 21 38  1  0  0  0  0
 22 23  1  0  0  0  0
 22 39  1  0  0  0  0
 23 24  1  0  0  0  0
 23 42  1  0  0  0  0
 24 26  1  0  0  0  0
 24 43  1  0  0  0  0
 26 27  1  0  0  0  0
 26 44  1  0  0  0  0
 27 28  1  0  0  0  0
 27 45  1  0  0  0  0
 28 46  1  0  0  0  0
 28 47  1  0  0  0  0
M  END
> <PUBCHEM_COMPOUND_CID>
101434718

> <PUBCHEM_CONFORMER_RMSD>
0.8

> <PUBCHEM_CONFORMER_DIVERSEORDER>
1
18
47
8
36
51
35
44
23
76
22
29
13
70
40
31
46
75
50
64
5
62
39
25
10
63
65
68
43
27
11
30
77
58
74
49
6
72
61
41
78
19
52
4
66
38
71
26
28
2
53
45
69
59
21
16
14
15
34
56
7
42
73
9
33
24
12
48
54
20
17
3
60
57
55
32
67
37

> <PUBCHEM_MMFF94_PARTIAL_CHARGES>
35
1 -0.68
10 -0.68
11 -0.57
12 -0.68
14 0.28
15 0.14
16 0.28
17 0.28
18 0.56
19 -0.12
2 -0.36
21 -0.07
22 0.56
23 0.28
24 0.28
25 0.71
26 0.28
27 0.28
28 0.28
3 -0.56
37 0.4
38 0.15
4 -0.68
40 0.4
41 0.4
48 0.4
49 0.4
5 -0.68
50 0.4
51 0.5
52 0.4
6 -0.56
7 -0.68
8 -0.68
9 -0.65

> <PUBCHEM_EFFECTIVE_ROTOR_COUNT>
6.2

> <PUBCHEM_PHARMACOPHORE_FEATURES>
23
1 1 acceptor
1 1 donor
1 10 acceptor
1 10 donor
1 11 acceptor
1 12 acceptor
1 12 donor
1 2 acceptor
1 3 acceptor
1 4 acceptor
1 4 donor
1 5 acceptor
1 5 donor
1 6 acceptor
1 7 acceptor
1 7 donor
1 8 acceptor
1 8 donor
1 9 acceptor
3 9 11 25 anion
5 13 14 15 16 17 rings
6 2 13 15 18 19 21 rings
6 6 22 23 24 26 27 rings

> <PUBCHEM_HEAVY_ATOM_COUNT>
28

> <PUBCHEM_ATOM_DEF_STEREO_COUNT>
11

> <PUBCHEM_ATOM_UDEF_STEREO_COUNT>
0

> <PUBCHEM_BOND_DEF_STEREO_COUNT>
0

> <PUBCHEM_BOND_UDEF_STEREO_COUNT>
0

> <PUBCHEM_ISOTOPIC_ATOM_COUNT>
0

> <PUBCHEM_COMPONENT_COUNT>
1

> <PUBCHEM_CACTVS_TAUTO_COUNT>
1

> <PUBCHEM_CONFORMER_ID>
060BC55E00000001

> <PUBCHEM_MMFF94_ENERGY>
94.0884

> <PUBCHEM_FEATURE_SELFOVERLAP>
117.068

> <PUBCHEM_SHAPE_FINGERPRINT>
10369192 42 13770218300748346902
11640471 11 18113912588477396428
11796584 16 17846223207664002782
12236239 1 18260266343393220600
12553582 1 18126844030520889131
12616971 3 17894909599499617058
12714826 92 17988371471725418819
12788726 201 18340773732020615315
13140716 1 18056186111212462795
13583140 156 16732985310447840331
13726171 33 17912676723383174064
14294032 229 18271248214931486089
14386348 63 16702027495384164846
15131766 46 16807033127579587565
15484559 13 15368627458095878060
16752209 62 18343576356625852347
16988056 13 15602025072790058929
17349148 13 18410003360439988950
17818456 19 18267020545018689144
17980427 23 18336539495773443644
20511986 3 18261383469062309164
20600515 1 17917412208273464904
21033648 144 17023753458589842044
21033650 10 18129685039960149260
22122407 14 17240765021957820461
22907989 373 18192155004362840751
23366157 5 17976539416931009787
23557571 272 17561365101460135592
23559900 14 17703793570696671042
23598288 3 18410296929923240387
338550 245 18339361838494265738
38570 142 17170995606269559828
4169191 19 17170687855137360188
474 4 17386013918195837048
559249 180 18270956826584570450
574716 61 17894911884042462094
59755656 520 17273994457965943641
633830 44 17750253503258333462

> <PUBCHEM_SHAPE_MULTIPOLES>
505.8
10.7
3
2.01
8.12
0.08
0.93
-2.73
0.3
-4.2
0.39
1.78
-0.15
-3.09

> <PUBCHEM_SHAPE_SELFOVERLAP>
1073.054

> <PUBCHEM_SHAPE_VOLUME>
277.3

> <PUBCHEM_COORDINATE_TYPE>
2
5
10

$$$$
