5320582
  -OEChem-09122013013D

 50 51  0     1  0  0  0  0  0999 V2000
    0.6090    1.2072    0.6617 O   0  0  0  0  0  0  0  0  0  0  0  0
    1.9164   -0.6887    0.2875 O   0  0  0  0  0  0  0  0  0  0  0  0
    2.7973    2.8373   -0.0882 O   0  0  0  0  0  0  0  0  0  0  0  0
    5.3799    1.5143    0.4218 O   0  0  0  0  0  0  0  0  0  0  0  0
    5.4053   -1.1354   -0.7332 O   0  0  0  0  0  0  0  0  0  0  0  0
    1.7931   -3.3251   -0.4811 O   0  0  0  0  0  0  0  0  0  0  0  0
   -5.6345    0.5679   -0.2404 O   0  0  0  0  0  0  0  0  0  0  0  0
   -4.9612   -1.4791   -1.0065 O   0  0  0  0  0  0  0  0  0  0  0  0
   -2.8617   -0.2316    1.2162 C   0  0  0  0  0  0  0  0  0  0  0  0
   -0.5797    0.4960    0.3301 C   0  0  1  0  0  0  0  0  0  0  0  0
   -1.5354    0.5149    1.5152 C   0  0  0  0  0  0  0  0  0  0  0  0
   -1.2276    1.1702   -0.8746 C   0  0  0  0  0  0  0  0  0  0  0  0
    1.7394    0.6880   -0.0380 C   0  0  2  0  0  0  0  0  0  0  0  0
   -3.3828    0.0985   -0.1877 C   0  0  0  0  0  0  0  0  0  0  0  0
    2.9654    1.4996    0.3803 C   0  0  1  0  0  0  0  0  0  0  0  0
    4.2483    0.9130   -0.2091 C   0  0  2  0  0  0  0  0  0  0  0  0
   -2.6640    0.7611   -1.1226 C   0  0  0  0  0  0  0  0  0  0  0  0
    4.3241   -0.5962    0.0227 C   0  0  1  0  0  0  0  0  0  0  0  0
    3.0208   -1.2771   -0.4019 C   0  0  1  0  0  0  0  0  0  0  0  0
   -2.6248   -1.7526    1.3283 C   0  0  0  0  0  0  0  0  0  0  0  0
   -3.8634    0.1960    2.3122 C   0  0  0  0  0  0  0  0  0  0  0  0
    3.0282   -2.7665   -0.0719 C   0  0  0  0  0  0  0  0  0  0  0  0
   -3.1578    1.1757   -2.4866 C   0  0  0  0  0  0  0  0  0  0  0  0
   -4.7342   -0.3877   -0.5341 C   0  0  0  0  0  0  0  0  0  0  0  0
   -0.3648   -0.5507    0.0861 H   0  0  0  0  0  0  0  0  0  0  0  0
   -1.0374    0.0911    2.3975 H   0  0  0  0  0  0  0  0  0  0  0  0
   -1.7381    1.5627    1.7817 H   0  0  0  0  0  0  0  0  0  0  0  0
   -0.6286    0.9410   -1.7650 H   0  0  0  0  0  0  0  0  0  0  0  0
   -1.1865    2.2619   -0.7611 H   0  0  0  0  0  0  0  0  0  0  0  0
    1.5655    0.7992   -1.1162 H   0  0  0  0  0  0  0  0  0  0  0  0
    3.0350    1.5487    1.4741 H   0  0  0  0  0  0  0  0  0  0  0  0
    4.3248    1.1508   -1.2773 H   0  0  0  0  0  0  0  0  0  0  0  0
    4.5324   -0.7817    1.0845 H   0  0  0  0  0  0  0  0  0  0  0  0
    2.8562   -1.1698   -1.4827 H   0  0  0  0  0  0  0  0  0  0  0  0
   -1.9672   -2.1247    0.5352 H   0  0  0  0  0  0  0  0  0  0  0  0
   -2.1660   -2.0108    2.2898 H   0  0  0  0  0  0  0  0  0  0  0  0
   -3.5651   -2.3119    1.2614 H   0  0  0  0  0  0  0  0  0  0  0  0
   -4.1126    1.2605    2.2312 H   0  0  0  0  0  0  0  0  0  0  0  0
   -4.7988   -0.3717    2.2521 H   0  0  0  0  0  0  0  0  0  0  0  0
   -3.4478    0.0256    3.3123 H   0  0  0  0  0  0  0  0  0  0  0  0
    3.1261   -2.9268    1.0069 H   0  0  0  0  0  0  0  0  0  0  0  0
    3.8324   -3.2946   -0.5916 H   0  0  0  0  0  0  0  0  0  0  0  0
   -3.0592    2.2596   -2.6082 H   0  0  0  0  0  0  0  0  0  0  0  0
   -4.2073    0.9241   -2.6615 H   0  0  0  0  0  0  0  0  0  0  0  0
   -2.5679    0.6838   -3.2671 H   0  0  0  0  0  0  0  0  0  0  0  0
    3.5939    3.3352    0.1635 H   0  0  0  0  0  0  0  0  0  0  0  0
    6.1766    1.1115    0.0359 H   0  0  0  0  0  0  0  0  0  0  0  0
    5.5939   -2.0249   -0.3903 H   0  0  0  0  0  0  0  0  0  0  0  0
    1.8162   -4.2704   -0.2547 H   0  0  0  0  0  0  0  0  0  0  0  0
   -6.5509    0.2906   -0.4535 H   0  0  0  0  0  0  0  0  0  0  0  0
  1 10  1  0  0  0  0
  1 13  1  0  0  0  0
  2 13  1  0  0  0  0
  2 19  1  0  0  0  0
  3 15  1  0  0  0  0
  3 46  1  0  0  0  0
  4 16  1  0  0  0  0
  4 47  1  0  0  0  0
  5 18  1  0  0  0  0
  5 48  1  0  0  0  0
  6 22  1  0  0  0  0
  6 49  1  0  0  0  0
  7 24  1  0  0  0  0
  7 50  1  0  0  0  0
  8 24  2  0  0  0  0
  9 11  1  0  0  0  0
  9 14  1  0  0  0  0
  9 20  1  0  0  0  0
  9 21  1  0  0  0  0
 10 11  1  0  0  0  0
 10 12  1  0  0  0  0
 10 25  1  0  0  0  0
 11 26  1  0  0  0  0
 11 27  1  0  0  0  0
 12 17  1  0  0  0  0
 12 28  1  0  0  0  0
 12 29  1  0  0  0  0
 13 15  1  0  0  0  0
 13 30  1  0  0  0  0
 14 17  2  0  0  0  0
 14 24  1  0  0  0  0
 15 16  1  0  0  0  0
 15 31  1  0  0  0  0
 16 18  1  0  0  0  0
 16 32  1  0  0  0  0
 17 23  1  0  0  0  0
 18 19  1  0  0  0  0
 18 33  1  0  0  0  0
 19 22  1  0  0  0  0
 19 34  1  0  0  0  0
 20 35  1  0  0  0  0
 20 36  1  0  0  0  0
 20 37  1  0  0  0  0
 21 38  1  0  0  0  0
 21 39  1  0  0  0  0
 21 40  1  0  0  0  0
 22 41  1  0  0  0  0
 22 42  1  0  0  0  0
 23 43  1  0  0  0  0
 23 44  1  0  0  0  0
 23 45  1  0  0  0  0
M  END
> <PUBCHEM_COMPOUND_CID>
5320582

> <PUBCHEM_CONFORMER_RMSD>
0.8

> <PUBCHEM_CONFORMER_DIVERSEORDER>
3
17
27
36
45
23
41
53
37
11
24
7
49
32
21
40
13
38
9
29
22
12
19
39
55
31
15
10
52
42
20
5
1
30
48
43
54
34
33
16
51
50
25
47
44
46
28
2
6
8
26
18
35
4
14

> <PUBCHEM_MMFF94_PARTIAL_CHARGES>
26
1 -0.56
10 0.28
12 0.14
13 0.56
14 -0.12
15 0.28
16 0.28
17 -0.28
18 0.28
19 0.28
2 -0.56
22 0.28
23 0.14
24 0.71
3 -0.68
4 -0.68
46 0.4
47 0.4
48 0.4
49 0.4
5 -0.68
50 0.5
6 -0.68
7 -0.65
8 -0.57
9 0.14

> <PUBCHEM_EFFECTIVE_ROTOR_COUNT>
6

> <PUBCHEM_PHARMACOPHORE_FEATURES>
16
1 1 acceptor
1 2 acceptor
1 3 acceptor
1 3 donor
1 4 acceptor
1 4 donor
1 5 acceptor
1 5 donor
1 6 acceptor
1 6 donor
1 7 acceptor
1 8 acceptor
3 7 8 24 anion
3 9 20 21 hydrophobe
6 2 13 15 16 18 19 rings
6 9 10 11 12 14 17 rings

> <PUBCHEM_HEAVY_ATOM_COUNT>
24

> <PUBCHEM_ATOM_DEF_STEREO_COUNT>
6

> <PUBCHEM_ATOM_UDEF_STEREO_COUNT>
0

> <PUBCHEM_BOND_DEF_STEREO_COUNT>
0

> <PUBCHEM_BOND_UDEF_STEREO_COUNT>
0

> <PUBCHEM_ISOTOPIC_ATOM_COUNT>
0

> <PUBCHEM_COMPONENT_COUNT>
1

> <PUBCHEM_CACTVS_TAUTO_COUNT>
1

> <PUBCHEM_CONFORMER_ID>
00512F8600000003

> <PUBCHEM_MMFF94_ENERGY>
65.8712

> <PUBCHEM_FEATURE_SELFOVERLAP>
81.315

> <PUBCHEM_SHAPE_FINGERPRINT>
10366900 7 18187370913137179038
11595378 159 16128655219503116322
12107183 9 17481721757885469017
12236239 1 17489870440211635865
12553582 1 18197225758753499314
12596602 18 17275099569740605443
13167823 11 17846499235782930885
13402501 40 18260270758546124554
13533116 47 18202283589613828043
13544592 145 18114183008329508923
13911987 19 18193288596693728116
14251757 17 18042120977210543217
14386348 63 18114185228521619771
14659021 117 16248271871263923766
15163728 17 14708588601092161279
15375358 24 18040998457432516994
15635459 17 18333731282361005650
15961568 22 16661492972967169972
17138139 8 17486466464029274751
200 152 18202562895294482889
20028762 73 17988642965879271942
20279233 1 18186240644932098457
20511986 3 17561075878578772473
20645477 70 18410006607540532286
21033650 10 16010165163915323660
21054139 6 18129654343676014678
23402539 116 16371001961757574208
23557571 272 17530964639986571924
23559900 14 18335137634926441008
23596394 208 18260261919851296510
23598288 3 17345479180207199377
2838139 119 10954000595487961455
33824 294 18411135836237069842
46194498 28 18040715904556529324
633830 44 17916884507422459496
6913067 236 18261663861638208556
9709674 26 18260547796948010923

> <PUBCHEM_SHAPE_MULTIPOLES>
446.95
11.84
2.42
1.58
2.18
1.25
-0.06
0.66
1.4
2.72
0.41
-2.44
-0.22
1.36

> <PUBCHEM_SHAPE_SELFOVERLAP>
921.485

> <PUBCHEM_SHAPE_VOLUME>
253.3

> <PUBCHEM_COORDINATE_TYPE>
2
5
10

$$$$
