75368787
  -OEChem-09122014183D

 67 69  0     1  0  0  0  0  0999 V2000
   -1.6369    1.2357   -0.0005 O   0  0  0  0  0  0  0  0  0  0  0  0
    1.1444    1.8724   -0.1641 O   0  0  0  0  0  0  0  0  0  0  0  0
   -1.4753    5.2774    1.5622 O   0  0  0  0  0  0  0  0  0  0  0  0
    1.1899    4.4191    0.9365 O   0  0  0  0  0  0  0  0  0  0  0  0
   -3.0787    5.8277   -1.5448 O   0  0  0  0  0  0  0  0  0  0  0  0
   -3.3347    6.7767    0.5118 O   0  0  0  0  0  0  0  0  0  0  0  0
   -2.4536    1.0111    2.1488 O   0  0  0  0  0  0  0  0  0  0  0  0
    1.9556    1.8674   -2.3273 O   0  0  0  0  0  0  0  0  0  0  0  0
   -4.7201   -4.7405   -2.1136 O   0  0  0  0  0  0  0  0  0  0  0  0
    6.4969   -2.0794    2.1654 O   0  0  0  0  0  0  0  0  0  0  0  0
   -5.3202   -6.6271   -0.1621 O   0  0  0  0  0  0  0  0  0  0  0  0
    7.8196   -3.6638    0.3032 O   0  0  0  0  0  0  0  0  0  0  0  0
   -1.7280    4.9963    0.1910 C   0  0  2  0  0  0  0  0  0  0  0  0
   -1.1197    2.5285    0.3158 C   0  0  1  0  0  0  0  0  0  0  0  0
    0.1246    2.7992   -0.5332 C   0  0  1  0  0  0  0  0  0  0  0  0
   -2.2169    3.5557    0.0284 C   0  0  0  0  0  0  0  0  0  0  0  0
    0.6455    4.2310   -0.3702 C   0  0  1  0  0  0  0  0  0  0  0  0
   -0.4570    5.2646   -0.6284 C   0  0  0  0  0  0  0  0  0  0  0  0
   -2.7929    5.9682   -0.2273 C   0  0  0  0  0  0  0  0  0  0  0  0
   -2.2802    0.5941    1.0146 C   0  0  0  0  0  0  0  0  0  0  0  0
    1.9882    1.4949   -1.1652 C   0  0  0  0  0  0  0  0  0  0  0  0
   -2.7411   -0.7158    0.5013 C   0  0  0  0  0  0  0  0  0  0  0  0
    2.9674    0.5414   -0.5961 C   0  0  0  0  0  0  0  0  0  0  0  0
   -3.4090   -1.5463    1.3145 C   0  0  0  0  0  0  0  0  0  0  0  0
    3.9156    0.0177   -1.3859 C   0  0  0  0  0  0  0  0  0  0  0  0
   -3.9092   -2.8764    0.9247 C   0  0  0  0  0  0  0  0  0  0  0  0
    4.9376   -0.9460   -0.9405 C   0  0  0  0  0  0  0  0  0  0  0  0
   -4.0820   -3.1885   -0.4237 C   0  0  0  0  0  0  0  0  0  0  0  0
    5.2415   -1.0625    0.4158 C   0  0  0  0  0  0  0  0  0  0  0  0
   -4.2102   -3.8233    1.9038 C   0  0  0  0  0  0  0  0  0  0  0  0
    5.6012   -1.7413   -1.8748 C   0  0  0  0  0  0  0  0  0  0  0  0
   -4.5558   -4.4473   -0.7933 C   0  0  0  0  0  0  0  0  0  0  0  0
    6.2089   -1.9745    0.8381 C   0  0  0  0  0  0  0  0  0  0  0  0
   -4.6841   -5.0821    1.5342 C   0  0  0  0  0  0  0  0  0  0  0  0
    6.5688   -2.6529   -1.4526 C   0  0  0  0  0  0  0  0  0  0  0  0
   -4.8568   -5.3942    0.1857 C   0  0  0  0  0  0  0  0  0  0  0  0
    6.8726   -2.7697   -0.0962 C   0  0  0  0  0  0  0  0  0  0  0  0
   -4.3893   -3.7170   -3.0504 C   0  0  0  0  0  0  0  0  0  0  0  0
    5.7733   -1.2304    3.0544 C   0  0  0  0  0  0  0  0  0  0  0  0
   -0.8255    2.5657    1.3733 H   0  0  0  0  0  0  0  0  0  0  0  0
   -0.1625    2.6357   -1.5817 H   0  0  0  0  0  0  0  0  0  0  0  0
   -2.6079    3.3843   -0.9837 H   0  0  0  0  0  0  0  0  0  0  0  0
   -3.0642    3.3717    0.7022 H   0  0  0  0  0  0  0  0  0  0  0  0
    1.4737    4.3982   -1.0685 H   0  0  0  0  0  0  0  0  0  0  0  0
   -0.0716    6.2655   -0.3936 H   0  0  0  0  0  0  0  0  0  0  0  0
   -0.6825    5.2509   -1.7022 H   0  0  0  0  0  0  0  0  0  0  0  0
   -1.0746    6.1611    1.6268 H   0  0  0  0  0  0  0  0  0  0  0  0
    1.5223    5.3315    0.9877 H   0  0  0  0  0  0  0  0  0  0  0  0
   -3.7741    6.4544   -1.8378 H   0  0  0  0  0  0  0  0  0  0  0  0
   -2.4881   -0.9555   -0.5247 H   0  0  0  0  0  0  0  0  0  0  0  0
    2.8515    0.2881    0.4512 H   0  0  0  0  0  0  0  0  0  0  0  0
   -3.6078   -1.2606    2.3449 H   0  0  0  0  0  0  0  0  0  0  0  0
    3.9628    0.2894   -2.4380 H   0  0  0  0  0  0  0  0  0  0  0  0
   -3.8684   -2.4260   -1.1616 H   0  0  0  0  0  0  0  0  0  0  0  0
    4.7327   -0.4134    1.1166 H   0  0  0  0  0  0  0  0  0  0  0  0
   -4.0806   -3.5979    2.9595 H   0  0  0  0  0  0  0  0  0  0  0  0
    5.3763   -1.6647   -2.9358 H   0  0  0  0  0  0  0  0  0  0  0  0
   -4.9146   -5.8104    2.3071 H   0  0  0  0  0  0  0  0  0  0  0  0
    7.0780   -3.2664   -2.1910 H   0  0  0  0  0  0  0  0  0  0  0  0
   -5.4738   -7.1472    0.6453 H   0  0  0  0  0  0  0  0  0  0  0  0
    8.1704   -4.1241   -0.4785 H   0  0  0  0  0  0  0  0  0  0  0  0
   -4.5732   -4.1255   -4.0497 H   0  0  0  0  0  0  0  0  0  0  0  0
   -3.3263   -3.4560   -3.0074 H   0  0  0  0  0  0  0  0  0  0  0  0
   -5.0415   -2.8436   -2.9423 H   0  0  0  0  0  0  0  0  0  0  0  0
    6.1244   -1.4536    4.0675 H   0  0  0  0  0  0  0  0  0  0  0  0
    4.6996   -1.4471    3.0382 H   0  0  0  0  0  0  0  0  0  0  0  0
    5.9917   -0.1728    2.8711 H   0  0  0  0  0  0  0  0  0  0  0  0
  1 14  1  0  0  0  0
  1 20  1  0  0  0  0
  2 15  1  0  0  0  0
  2 21  1  0  0  0  0
  3 13  1  0  0  0  0
  3 47  1  0  0  0  0
  4 17  1  0  0  0  0
  4 48  1  0  0  0  0
  5 19  1  0  0  0  0
  5 49  1  0  0  0  0
  6 19  2  0  0  0  0
  7 20  2  0  0  0  0
  8 21  2  0  0  0  0
  9 32  1  0  0  0  0
  9 38  1  0  0  0  0
 10 33  1  0  0  0  0
 10 39  1  0  0  0  0
 11 36  1  0  0  0  0
 11 60  1  0  0  0  0
 12 37  1  0  0  0  0
 12 61  1  0  0  0  0
 13 16  1  0  0  0  0
 13 18  1  0  0  0  0
 13 19  1  0  0  0  0
 14 15  1  0  0  0  0
 14 16  1  0  0  0  0
 14 40  1  0  0  0  0
 15 17  1  0  0  0  0
 15 41  1  0  0  0  0
 16 42  1  0  0  0  0
 16 43  1  0  0  0  0
 17 18  1  0  0  0  0
 17 44  1  0  0  0  0
 18 45  1  0  0  0  0
 18 46  1  0  0  0  0
 20 22  1  0  0  0  0
 21 23  1  0  0  0  0
 22 24  2  0  0  0  0
 22 50  1  0  0  0  0
 23 25  2  0  0  0  0
 23 51  1  0  0  0  0
 24 26  1  0  0  0  0
 24 52  1  0  0  0  0
 25 27  1  0  0  0  0
 25 53  1  0  0  0  0
 26 28  2  0  0  0  0
 26 30  1  0  0  0  0
 27 29  2  0  0  0  0
 27 31  1  0  0  0  0
 28 32  1  0  0  0  0
 28 54  1  0  0  0  0
 29 33  1  0  0  0  0
 29 55  1  0  0  0  0
 30 34  2  0  0  0  0
 30 56  1  0  0  0  0
 31 35  2  0  0  0  0
 31 57  1  0  0  0  0
 32 36  2  0  0  0  0
 33 37  2  0  0  0  0
 34 36  1  0  0  0  0
 34 58  1  0  0  0  0
 35 37  1  0  0  0  0
 35 59  1  0  0  0  0
 38 62  1  0  0  0  0
 38 63  1  0  0  0  0
 38 64  1  0  0  0  0
 39 65  1  0  0  0  0
 39 66  1  0  0  0  0
 39 67  1  0  0  0  0
M  END
> <PUBCHEM_COMPOUND_CID>
75368787

> <PUBCHEM_CONFORMER_RMSD>
1.2

> <PUBCHEM_CONFORMER_DIVERSEORDER>
1
32
21
29
6
15
31
13
19
23
33
8
20
10
14
9
28
24
26
25
30
3
12
16
27
5
11
18
17
7
22
2
4

> <PUBCHEM_MMFF94_PARTIAL_CHARGES>
52
1 -0.43
10 -0.36
11 -0.53
12 -0.53
13 0.34
14 0.28
15 0.28
17 0.28
19 0.66
2 -0.43
20 0.71
21 0.71
22 -0.14
23 -0.14
24 -0.18
25 -0.18
26 0.03
27 0.03
28 -0.15
29 -0.15
3 -0.68
30 -0.15
31 -0.15
32 0.08
33 0.08
34 -0.15
35 -0.15
36 0.08
37 0.08
38 0.28
39 0.28
4 -0.68
47 0.4
48 0.4
49 0.5
5 -0.65
50 0.15
51 0.15
52 0.15
53 0.15
54 0.15
55 0.15
56 0.15
57 0.15
58 0.15
59 0.15
6 -0.57
60 0.45
61 0.45
7 -0.57
8 -0.57
9 -0.36

> <PUBCHEM_EFFECTIVE_ROTOR_COUNT>
12.2

> <PUBCHEM_PHARMACOPHORE_FEATURES>
16
1 10 acceptor
1 11 donor
1 12 donor
1 3 acceptor
1 3 donor
1 4 acceptor
1 4 donor
1 5 acceptor
1 6 acceptor
1 7 acceptor
1 8 acceptor
1 9 acceptor
3 5 6 19 anion
6 13 14 15 16 17 18 rings
6 26 28 30 32 34 36 rings
6 27 29 31 33 35 37 rings

> <PUBCHEM_HEAVY_ATOM_COUNT>
39

> <PUBCHEM_ATOM_DEF_STEREO_COUNT>
4

> <PUBCHEM_ATOM_UDEF_STEREO_COUNT>
0

> <PUBCHEM_BOND_DEF_STEREO_COUNT>
2

> <PUBCHEM_BOND_UDEF_STEREO_COUNT>
0

> <PUBCHEM_ISOTOPIC_ATOM_COUNT>
0

> <PUBCHEM_COMPONENT_COUNT>
1

> <PUBCHEM_CACTVS_TAUTO_COUNT>
21

> <PUBCHEM_CONFORMER_ID>
047E095300000001

> <PUBCHEM_MMFF94_ENERGY>
123.1971

> <PUBCHEM_FEATURE_SELFOVERLAP>
81.276

> <PUBCHEM_SHAPE_FINGERPRINT>
10622 236 18267313195031214503
10985338 1 16608257020577925665
11135609 149 18123460842227029527
12107183 9 18053977145254982787
15320294 125 17825123509952760652
19301676 85 18410290342229203727
20609170 109 17612539667684747656
20721686 124 17185030016951241781
21133410 171 17755819217722687578
23569914 152 18196346283228839999
3383291 50 18194685856586427473
3882209 13 18267288992879744142
4017518 198 17686907111707716492
49967989 163 18266473018392860334
5223283 242 18192708063707926727
6058803 2 18121532234086595653
6691757 9 18050857611144206256

> <PUBCHEM_SHAPE_MULTIPOLES>
732.17
17.12
13.03
2.25
25.6
14.36
-0.01
-38.34
1.01
-21.44
-0.7
0.52
-2.1
-1.72

> <PUBCHEM_SHAPE_SELFOVERLAP>
1562.796

> <PUBCHEM_SHAPE_VOLUME>
402.2

> <PUBCHEM_COORDINATE_TYPE>
2
5
10

$$$$
