71552547
  -OEChem-09122011373D

 70 72  0     1  0  0  0  0  0999 V2000
   -0.5675    1.3418    0.1608 O   0  0  0  0  0  0  0  0  0  0  0  0
    1.9570    0.3187   -0.2078 O   0  0  0  0  0  0  0  0  0  0  0  0
    4.2789    0.1832   -0.3936 O   0  0  0  0  0  0  0  0  0  0  0  0
   -2.8328    0.8657   -0.1309 O   0  0  0  0  0  0  0  0  0  0  0  0
    1.3205    4.4794    0.2274 O   0  0  0  0  0  0  0  0  0  0  0  0
   -1.3639    5.2987    0.9195 O   0  0  0  0  0  0  0  0  0  0  0  0
   -3.3458    3.6267   -0.4794 O   0  0  0  0  0  0  0  0  0  0  0  0
    1.8931   -2.3680    0.6784 O   0  0  0  0  0  0  0  0  0  0  0  0
    4.1719   -3.9222   -0.3570 O   0  0  0  0  0  0  0  0  0  0  0  0
    6.6583   -2.5441    0.1666 O   0  0  0  0  0  0  0  0  0  0  0  0
   -1.6737   -0.7910   -1.2584 O   0  0  0  0  0  0  0  0  0  0  0  0
    6.5859    1.6684   -0.2278 O   0  0  0  0  0  0  0  0  0  0  0  0
   -3.6804   -2.0107    1.0520 C   0  0  0  0  0  0  0  0  0  0  0  0
    0.5237    2.2268   -0.0987 C   0  0  1  0  0  0  0  0  0  0  0  0
    0.2656    3.5821    0.5639 C   0  0  2  0  0  0  0  0  0  0  0  0
   -1.0661    4.1696    0.0968 C   0  0  1  0  0  0  0  0  0  0  0  0
   -5.0363   -2.6744    1.4149 C   0  0  0  0  0  0  0  0  0  0  0  0
   -2.1942    3.1442    0.2123 C   0  0  2  0  0  0  0  0  0  0  0  0
   -1.7925    1.8039   -0.4035 C   0  0  1  0  0  0  0  0  0  0  0  0
   -3.7793   -1.2199   -0.2582 C   0  0  0  0  0  0  0  0  0  0  0  0
    2.9736   -1.8423   -0.0919 C   0  0  1  0  0  0  0  0  0  0  0  0
    3.1272   -0.3599    0.2476 C   0  0  2  0  0  0  0  0  0  0  0  0
   -5.7158   -3.2965    0.2058 C   0  0  0  0  0  0  0  0  0  0  0  0
    4.2501   -2.6209    0.2271 C   0  0  2  0  0  0  0  0  0  0  0  0
    5.4831   -1.9199   -0.3435 C   0  0  1  0  0  0  0  0  0  0  0  0
    1.7892    1.5668    0.4396 C   0  0  0  0  0  0  0  0  0  0  0  0
    5.4907   -0.4379    0.0387 C   0  0  1  0  0  0  0  0  0  0  0  0
   -5.9923   -2.2320   -0.8488 C   0  0  0  0  0  0  0  0  0  0  0  0
   -4.8344   -1.2885   -1.1019 C   0  0  0  0  0  0  0  0  0  0  0  0
   -3.3056   -1.0992    2.2421 C   0  0  0  0  0  0  0  0  0  0  0  0
   -2.6003   -3.1039    0.9076 C   0  0  0  0  0  0  0  0  0  0  0  0
   -2.6219   -0.3771   -0.6231 C   0  0  0  0  0  0  0  0  0  0  0  0
    6.6489    0.3083   -0.6161 C   0  0  0  0  0  0  0  0  0  0  0  0
   -5.0149   -0.4761   -2.3605 C   0  0  0  0  0  0  0  0  0  0  0  0
    0.6338    2.3341   -1.1865 H   0  0  0  0  0  0  0  0  0  0  0  0
    0.2599    3.4790    1.6560 H   0  0  0  0  0  0  0  0  0  0  0  0
   -0.9869    4.5511   -0.9280 H   0  0  0  0  0  0  0  0  0  0  0  0
   -5.7169   -1.9268    1.8461 H   0  0  0  0  0  0  0  0  0  0  0  0
   -4.8943   -3.4395    2.1886 H   0  0  0  0  0  0  0  0  0  0  0  0
   -2.4875    3.0117    1.2605 H   0  0  0  0  0  0  0  0  0  0  0  0
   -1.6944    1.8954   -1.4942 H   0  0  0  0  0  0  0  0  0  0  0  0
    2.7004   -1.9678   -1.1464 H   0  0  0  0  0  0  0  0  0  0  0  0
    3.2149   -0.2359    1.3362 H   0  0  0  0  0  0  0  0  0  0  0  0
    4.3542   -2.7771    1.3072 H   0  0  0  0  0  0  0  0  0  0  0  0
   -6.6587   -3.7674    0.5068 H   0  0  0  0  0  0  0  0  0  0  0  0
   -5.0901   -4.0910   -0.2173 H   0  0  0  0  0  0  0  0  0  0  0  0
    5.4997   -2.0334   -1.4344 H   0  0  0  0  0  0  0  0  0  0  0  0
    1.6857    1.3959    1.5182 H   0  0  0  0  0  0  0  0  0  0  0  0
    2.6636    2.2015    0.2583 H   0  0  0  0  0  0  0  0  0  0  0  0
    5.5782   -0.3115    1.1265 H   0  0  0  0  0  0  0  0  0  0  0  0
   -6.8610   -1.6350   -0.5430 H   0  0  0  0  0  0  0  0  0  0  0  0
   -6.2676   -2.7407   -1.7808 H   0  0  0  0  0  0  0  0  0  0  0  0
   -3.3146   -1.6595    3.1844 H   0  0  0  0  0  0  0  0  0  0  0  0
   -2.5619   -3.7411    1.7987 H   0  0  0  0  0  0  0  0  0  0  0  0
   -1.6018   -2.6695    0.7811 H   0  0  0  0  0  0  0  0  0  0  0  0
   -2.7877   -3.7509    0.0436 H   0  0  0  0  0  0  0  0  0  0  0  0
   -4.0097   -0.2650    2.3429 H   0  0  0  0  0  0  0  0  0  0  0  0
   -2.3009   -0.6762    2.1296 H   0  0  0  0  0  0  0  0  0  0  0  0
    6.5705    0.2694   -1.7078 H   0  0  0  0  0  0  0  0  0  0  0  0
    7.6158   -0.1007   -0.3080 H   0  0  0  0  0  0  0  0  0  0  0  0
   -5.9481    0.0947   -2.3085 H   0  0  0  0  0  0  0  0  0  0  0  0
   -5.0598   -1.1365   -3.2328 H   0  0  0  0  0  0  0  0  0  0  0  0
   -4.2064    0.2396   -2.5320 H   0  0  0  0  0  0  0  0  0  0  0  0
    1.3431    4.5668   -0.7409 H   0  0  0  0  0  0  0  0  0  0  0  0
   -1.4581    4.9885    1.8363 H   0  0  0  0  0  0  0  0  0  0  0  0
   -3.1070    3.7487   -1.4141 H   0  0  0  0  0  0  0  0  0  0  0  0
    2.1149   -2.2644    1.6195 H   0  0  0  0  0  0  0  0  0  0  0  0
    4.0609   -3.8166   -1.3173 H   0  0  0  0  0  0  0  0  0  0  0  0
    6.6600   -2.4369    1.1331 H   0  0  0  0  0  0  0  0  0  0  0  0
    7.3287    2.1247   -0.6587 H   0  0  0  0  0  0  0  0  0  0  0  0
  1 14  1  0  0  0  0
  1 19  1  0  0  0  0
  2 22  1  0  0  0  0
  2 26  1  0  0  0  0
  3 22  1  0  0  0  0
  3 27  1  0  0  0  0
  4 19  1  0  0  0  0
  4 32  1  0  0  0  0
  5 15  1  0  0  0  0
  5 64  1  0  0  0  0
  6 16  1  0  0  0  0
  6 65  1  0  0  0  0
  7 18  1  0  0  0  0
  7 66  1  0  0  0  0
  8 21  1  0  0  0  0
  8 67  1  0  0  0  0
  9 24  1  0  0  0  0
  9 68  1  0  0  0  0
 10 25  1  0  0  0  0
 10 69  1  0  0  0  0
 11 32  2  0  0  0  0
 12 33  1  0  0  0  0
 12 70  1  0  0  0  0
 13 17  1  0  0  0  0
 13 20  1  0  0  0  0
 13 30  1  0  0  0  0
 13 31  1  0  0  0  0
 14 15  1  0  0  0  0
 14 26  1  0  0  0  0
 14 35  1  0  0  0  0
 15 16  1  0  0  0  0
 15 36  1  0  0  0  0
 16 18  1  0  0  0  0
 16 37  1  0  0  0  0
 17 23  1  0  0  0  0
 17 38  1  0  0  0  0
 17 39  1  0  0  0  0
 18 19  1  0  0  0  0
 18 40  1  0  0  0  0
 19 41  1  0  0  0  0
 20 29  2  0  0  0  0
 20 32  1  0  0  0  0
 21 22  1  0  0  0  0
 21 24  1  0  0  0  0
 21 42  1  0  0  0  0
 22 43  1  0  0  0  0
 23 28  1  0  0  0  0
 23 45  1  0  0  0  0
 23 46  1  0  0  0  0
 24 25  1  0  0  0  0
 24 44  1  0  0  0  0
 25 27  1  0  0  0  0
 25 47  1  0  0  0  0
 26 48  1  0  0  0  0
 26 49  1  0  0  0  0
 27 33  1  0  0  0  0
 27 50  1  0  0  0  0
 28 29  1  0  0  0  0
 28 51  1  0  0  0  0
 28 52  1  0  0  0  0
 29 34  1  0  0  0  0
 30 53  1  0  0  0  0
 30 57  1  0  0  0  0
 30 58  1  0  0  0  0
 31 54  1  0  0  0  0
 31 55  1  0  0  0  0
 31 56  1  0  0  0  0
 33 59  1  0  0  0  0
 33 60  1  0  0  0  0
 34 61  1  0  0  0  0
 34 62  1  0  0  0  0
 34 63  1  0  0  0  0
M  END
> <PUBCHEM_COMPOUND_CID>
71552547

> <PUBCHEM_CONFORMER_RMSD>
1

> <PUBCHEM_CONFORMER_DIVERSEORDER>
1
156
140
82
205
60
134
201
178
85
69
116
59
78
73
216
132
143
98
198
181
148
200
119
193
54
96
145
210
136
158
90
172
184
120
84
43
197
150
221
189
154
27
176
65
170
130
51
179
56
190
14
141
28
171
161
16
41
211
175
133
36
153
131
192
107
101
99
81
199
58
12
61
218
219
71
124
97
220
80
106
147
49
126
35
9
173
164
18
117
47
100
137
8
86
188
108
203
109
152
87
187
155
110
88
113
206
202
149
212
135
6
217
114
63
118
169
204
15
166
21
22
68
91
162
174
102
112
165
94
163
138
64
213
128
215
13
79
44
32
50
185
105
144
160
186
67
74
208
11
5
26
10
195
111
7
89
77
55
57
123
38
92
168
177
182
194
25
183
17
167
42
52
70
127
34
159
121
39
129
151
142
207
146
66
125
19
20
72
196
24
191
93
76
31
29
139
180
23
46
214
33
53
45
40
48
157
103
209
62
115
95
75
37
2
83
104
3
122
4
30

> <PUBCHEM_MMFF94_PARTIAL_CHARGES>
37
1 -0.56
10 -0.68
11 -0.57
12 -0.68
13 0.14
14 0.28
15 0.28
16 0.28
18 0.28
19 0.56
2 -0.56
20 -0.12
21 0.28
22 0.56
24 0.28
25 0.28
26 0.28
27 0.28
28 0.14
29 -0.28
3 -0.56
32 0.71
33 0.28
34 0.14
4 -0.43
5 -0.68
6 -0.68
64 0.4
65 0.4
66 0.4
67 0.4
68 0.4
69 0.4
7 -0.68
70 0.4
8 -0.68
9 -0.68

> <PUBCHEM_EFFECTIVE_ROTOR_COUNT>
10.2

> <PUBCHEM_PHARMACOPHORE_FEATURES>
22
1 1 acceptor
1 10 acceptor
1 10 donor
1 11 acceptor
1 12 acceptor
1 12 donor
1 2 acceptor
1 3 acceptor
1 5 acceptor
1 5 donor
1 6 acceptor
1 6 donor
1 7 acceptor
1 7 donor
1 8 acceptor
1 8 donor
1 9 acceptor
1 9 donor
3 13 30 31 hydrophobe
6 1 14 15 16 18 19 rings
6 13 17 20 23 28 29 rings
6 3 21 22 24 25 27 rings

> <PUBCHEM_HEAVY_ATOM_COUNT>
34

> <PUBCHEM_ATOM_DEF_STEREO_COUNT>
10

> <PUBCHEM_ATOM_UDEF_STEREO_COUNT>
0

> <PUBCHEM_BOND_DEF_STEREO_COUNT>
0

> <PUBCHEM_BOND_UDEF_STEREO_COUNT>
0

> <PUBCHEM_ISOTOPIC_ATOM_COUNT>
0

> <PUBCHEM_COMPONENT_COUNT>
1

> <PUBCHEM_CACTVS_TAUTO_COUNT>
1

> <PUBCHEM_CONFORMER_ID>
0443CE2300000001

> <PUBCHEM_MMFF94_ENERGY>
89.2085

> <PUBCHEM_FEATURE_SELFOVERLAP>
111.742

> <PUBCHEM_SHAPE_FINGERPRINT>
10462674 369 17607836063556505242
10483366 6 18268131086681689709
10653451 467 18124866018399272288
11227688 84 18052250988596752527
11297010 23 16387884576382678180
11991303 11 18045506305263260621
12516196 113 18411701031962748638
12788726 201 18264194830115666899
13402501 40 18261393407152622866
13631057 29 18411702076161839532
14394314 77 18412552011255710561
14659021 117 18264762173467223760
14790565 3 17546730356913735680
14866123 147 18339081472278253833
15250474 111 18046619011193840114
15320467 1 18338517555235147226
15351339 4 18041827442441023763
15927050 60 17907294356746310949
15968369 26 17757540129407664349
16628084 112 17829600661830626005
17492 89 18339362938644307558
17909252 39 18410857706908124784
19301676 85 18050281462618270519
19315092 285 17202192122508896579
20101258 96 18412548704062171361
21133410 32 16227200143381196370
23559900 14 18189327034828529303
25025965 108 17914309335063490766
329604 57 18407761447957393790
3421961 26 18267866279718706321
4015057 19 18265889341064872271
4073 2 18265899047896468890
437815 12 18336543928084669655
5309563 4 18339080501141189803
5912855 24 18340495443883466016
613672 6 18266436845656131267
6431902 208 18409450288747960894
6669772 16 17836088149675890564
70251023 43 18338514257068879817
7970288 3 18339641238922911039

> <PUBCHEM_SHAPE_MULTIPOLES>
629.27
15.64
6.26
1.27
14.62
7.12
-0.03
-16.05
-2.84
-1.07
1.5
-2.25
-0.46
0.78

> <PUBCHEM_SHAPE_SELFOVERLAP>
1302.806

> <PUBCHEM_SHAPE_VOLUME>
355.8

> <PUBCHEM_COORDINATE_TYPE>
2
5
10

$$$$
