10388962
  -OEChem-09122011443D

 67 68  0     1  0  0  0  0  0999 V2000
    0.3467    1.3939   -0.9158 O   0  0  0  0  0  0  0  0  0  0  0  0
    2.7543    0.0703   -0.5398 O   0  0  0  0  0  0  0  0  0  0  0  0
    2.3149   -1.9690   -1.6609 O   0  0  0  0  0  0  0  0  0  0  0  0
    3.2489    3.5289   -0.2580 O   0  0  0  0  0  0  0  0  0  0  0  0
   -1.9163    1.5942   -0.3842 O   0  0  0  0  0  0  0  0  0  0  0  0
    1.3762    4.2900    1.8082 O   0  0  0  0  0  0  0  0  0  0  0  0
   -1.3904    4.1043    0.8121 O   0  0  0  0  0  0  0  0  0  0  0  0
    4.7286   -2.9726   -0.3164 O   0  0  0  0  0  0  0  0  0  0  0  0
    2.1933   -1.4770    1.8444 O   0  0  0  0  0  0  0  0  0  0  0  0
    0.7592   -3.7390    1.1516 O   0  0  0  0  0  0  0  0  0  0  0  0
    1.5859    2.0506   -1.1880 C   0  0  1  0  0  0  0  0  0  0  0  0
    2.0572    2.8118    0.0533 C   0  0  2  0  0  0  0  0  0  0  0  0
    0.9855    3.7938    0.5269 C   0  0  1  0  0  0  0  0  0  0  0  0
   -0.3784    3.1127    0.6390 C   0  0  2  0  0  0  0  0  0  0  0  0
   -0.7046    2.3105   -0.6207 C   0  0  1  0  0  0  0  0  0  0  0  0
    2.5895    0.9823   -1.6102 C   0  0  0  0  0  0  0  0  0  0  0  0
    3.2922   -1.1718   -0.9830 C   0  0  2  0  0  0  0  0  0  0  0  0
    3.9123   -1.9250    0.2035 C   0  0  1  0  0  0  0  0  0  0  0  0
    2.8466   -2.5240    1.1278 C   0  0  2  0  0  0  0  0  0  0  0  0
    1.8118   -3.2955    0.3064 C   0  0  2  0  0  0  0  0  0  0  0  0
    1.2612   -2.4268   -0.8172 C   0  0  0  0  0  0  0  0  0  0  0  0
   -2.2924    0.8179   -1.5138 C   0  0  0  0  0  0  0  0  0  0  0  0
   -3.7503    0.5005   -1.4100 C   0  0  0  0  0  0  0  0  0  0  0  0
   -4.3344   -0.7134   -1.3827 C   0  0  0  0  0  0  0  0  0  0  0  0
   -3.5907   -2.0323   -1.4069 C   0  0  0  0  0  0  0  0  0  0  0  0
   -5.8346   -0.8258   -1.2877 C   0  0  0  0  0  0  0  0  0  0  0  0
   -3.2477   -2.5742   -0.0131 C   0  0  0  0  0  0  0  0  0  0  0  0
   -2.3646   -1.6413    0.7687 C   0  0  0  0  0  0  0  0  0  0  0  0
   -2.6590   -0.9688    1.8974 C   0  0  0  0  0  0  0  0  0  0  0  0
   -3.9656   -1.0385    2.6352 C   0  0  0  0  0  0  0  0  0  0  0  0
   -1.6351   -0.0668    2.5337 C   0  0  0  0  0  0  0  0  0  0  0  0
    1.4531    2.7368   -2.0351 H   0  0  0  0  0  0  0  0  0  0  0  0
    2.2965    2.1221    0.8714 H   0  0  0  0  0  0  0  0  0  0  0  0
    0.9348    4.6660   -0.1354 H   0  0  0  0  0  0  0  0  0  0  0  0
   -0.4096    2.4713    1.5259 H   0  0  0  0  0  0  0  0  0  0  0  0
   -0.8644    2.9852   -1.4729 H   0  0  0  0  0  0  0  0  0  0  0  0
    3.5590    1.4218   -1.8682 H   0  0  0  0  0  0  0  0  0  0  0  0
    2.1937    0.4627   -2.4917 H   0  0  0  0  0  0  0  0  0  0  0  0
    4.0909   -0.9767   -1.7108 H   0  0  0  0  0  0  0  0  0  0  0  0
    4.5553   -1.2386    0.7673 H   0  0  0  0  0  0  0  0  0  0  0  0
    3.2925   -3.1970    1.8692 H   0  0  0  0  0  0  0  0  0  0  0  0
    2.2946   -4.1809   -0.1249 H   0  0  0  0  0  0  0  0  0  0  0  0
    0.7004   -1.5691   -0.4326 H   0  0  0  0  0  0  0  0  0  0  0  0
    0.5597   -3.0029   -1.4303 H   0  0  0  0  0  0  0  0  0  0  0  0
    3.0489    4.1432   -0.9848 H   0  0  0  0  0  0  0  0  0  0  0  0
    1.4102    3.5398    2.4260 H   0  0  0  0  0  0  0  0  0  0  0  0
   -1.3769    4.6879    0.0344 H   0  0  0  0  0  0  0  0  0  0  0  0
   -1.6599   -0.0705   -1.5717 H   0  0  0  0  0  0  0  0  0  0  0  0
   -2.1461    1.3929   -2.4367 H   0  0  0  0  0  0  0  0  0  0  0  0
    5.1382   -3.4268    0.4396 H   0  0  0  0  0  0  0  0  0  0  0  0
    2.8711   -1.0084    2.3606 H   0  0  0  0  0  0  0  0  0  0  0  0
    0.1140   -4.2086    0.5960 H   0  0  0  0  0  0  0  0  0  0  0  0
   -4.3950    1.3781   -1.3744 H   0  0  0  0  0  0  0  0  0  0  0  0
   -2.6736   -1.9429   -2.0018 H   0  0  0  0  0  0  0  0  0  0  0  0
   -4.1956   -2.7772   -1.9400 H   0  0  0  0  0  0  0  0  0  0  0  0
   -6.1185   -1.3738   -0.3835 H   0  0  0  0  0  0  0  0  0  0  0  0
   -6.3258    0.1523   -1.2492 H   0  0  0  0  0  0  0  0  0  0  0  0
   -6.2295   -1.3606   -2.1576 H   0  0  0  0  0  0  0  0  0  0  0  0
   -2.7109   -3.5241   -0.1303 H   0  0  0  0  0  0  0  0  0  0  0  0
   -4.1693   -2.8206    0.5209 H   0  0  0  0  0  0  0  0  0  0  0  0
   -1.3716   -1.5131    0.3482 H   0  0  0  0  0  0  0  0  0  0  0  0
   -4.7202   -1.6519    2.1399 H   0  0  0  0  0  0  0  0  0  0  0  0
   -4.3894   -0.0339    2.7399 H   0  0  0  0  0  0  0  0  0  0  0  0
   -3.8094   -1.4513    3.6373 H   0  0  0  0  0  0  0  0  0  0  0  0
   -0.6993   -0.0310    1.9659 H   0  0  0  0  0  0  0  0  0  0  0  0
   -1.3966   -0.4186    3.5428 H   0  0  0  0  0  0  0  0  0  0  0  0
   -2.0238    0.9540    2.6057 H   0  0  0  0  0  0  0  0  0  0  0  0
  1 11  1  0  0  0  0
  1 15  1  0  0  0  0
  2 16  1  0  0  0  0
  2 17  1  0  0  0  0
  3 17  1  0  0  0  0
  3 21  1  0  0  0  0
  4 12  1  0  0  0  0
  4 45  1  0  0  0  0
  5 15  1  0  0  0  0
  5 22  1  0  0  0  0
  6 13  1  0  0  0  0
  6 46  1  0  0  0  0
  7 14  1  0  0  0  0
  7 47  1  0  0  0  0
  8 18  1  0  0  0  0
  8 50  1  0  0  0  0
  9 19  1  0  0  0  0
  9 51  1  0  0  0  0
 10 20  1  0  0  0  0
 10 52  1  0  0  0  0
 11 12  1  0  0  0  0
 11 16  1  0  0  0  0
 11 32  1  0  0  0  0
 12 13  1  0  0  0  0
 12 33  1  0  0  0  0
 13 14  1  0  0  0  0
 13 34  1  0  0  0  0
 14 15  1  0  0  0  0
 14 35  1  0  0  0  0
 15 36  1  0  0  0  0
 16 37  1  0  0  0  0
 16 38  1  0  0  0  0
 17 18  1  0  0  0  0
 17 39  1  0  0  0  0
 18 19  1  0  0  0  0
 18 40  1  0  0  0  0
 19 20  1  0  0  0  0
 19 41  1  0  0  0  0
 20 21  1  0  0  0  0
 20 42  1  0  0  0  0
 21 43  1  0  0  0  0
 21 44  1  0  0  0  0
 22 23  1  0  0  0  0
 22 48  1  0  0  0  0
 22 49  1  0  0  0  0
 23 24  2  0  0  0  0
 23 53  1  0  0  0  0
 24 25  1  0  0  0  0
 24 26  1  0  0  0  0
 25 27  1  0  0  0  0
 25 54  1  0  0  0  0
 25 55  1  0  0  0  0
 26 56  1  0  0  0  0
 26 57  1  0  0  0  0
 26 58  1  0  0  0  0
 27 28  1  0  0  0  0
 27 59  1  0  0  0  0
 27 60  1  0  0  0  0
 28 29  2  0  0  0  0
 28 61  1  0  0  0  0
 29 30  1  0  0  0  0
 29 31  1  0  0  0  0
 30 62  1  0  0  0  0
 30 63  1  0  0  0  0
 30 64  1  0  0  0  0
 31 65  1  0  0  0  0
 31 66  1  0  0  0  0
 31 67  1  0  0  0  0
M  END
> <PUBCHEM_COMPOUND_CID>
10388962

> <PUBCHEM_CONFORMER_RMSD>
1.4

> <PUBCHEM_CONFORMER_DIVERSEORDER>
6
39
15
78
96
103
75
50
57
71
34
72
92
106
94
40
97
81
73
89
88
16
9
8
98
84
86
56
90
64
32
91
101
61
102
82
93
3
47
29
83
67
37
60
104
99
44
66
19
70
55
25
30
7
26
5
59
22
14
52
53
54
79
45
35
48
80
24
65
58
12
95
1
74
49
31
23
43
107
85
51
63
11
46
27
69
38
68
100
21
13
10
62
36
20
18
77
41
33
4
76
105
28
17
87
2
42

> <PUBCHEM_MMFF94_PARTIAL_CHARGES>
39
1 -0.56
10 -0.68
11 0.28
12 0.28
13 0.28
14 0.28
15 0.56
16 0.28
17 0.56
18 0.28
19 0.28
2 -0.56
20 0.28
21 0.28
22 0.42
23 -0.29
24 -0.28
25 0.14
26 0.14
27 0.14
28 -0.29
29 -0.28
3 -0.56
30 0.14
31 0.14
4 -0.68
45 0.4
46 0.4
47 0.4
5 -0.56
50 0.4
51 0.4
52 0.4
53 0.15
6 -0.68
61 0.15
7 -0.68
8 -0.68
9 -0.68

> <PUBCHEM_EFFECTIVE_ROTOR_COUNT>
11.4

> <PUBCHEM_PHARMACOPHORE_FEATURES>
21
1 1 acceptor
1 10 acceptor
1 10 donor
1 2 acceptor
1 26 hydrophobe
1 3 acceptor
1 4 acceptor
1 4 donor
1 5 acceptor
1 6 acceptor
1 6 donor
1 7 acceptor
1 7 donor
1 8 acceptor
1 8 donor
1 9 acceptor
1 9 donor
3 29 30 31 hydrophobe
4 24 25 27 28 hydrophobe
6 1 11 12 13 14 15 rings
6 3 17 18 19 20 21 rings

> <PUBCHEM_HEAVY_ATOM_COUNT>
31

> <PUBCHEM_ATOM_DEF_STEREO_COUNT>
9

> <PUBCHEM_ATOM_UDEF_STEREO_COUNT>
0

> <PUBCHEM_BOND_DEF_STEREO_COUNT>
1

> <PUBCHEM_BOND_UDEF_STEREO_COUNT>
0

> <PUBCHEM_ISOTOPIC_ATOM_COUNT>
0

> <PUBCHEM_COMPONENT_COUNT>
1

> <PUBCHEM_CACTVS_TAUTO_COUNT>
1

> <PUBCHEM_CONFORMER_ID>
009E85E200000006

> <PUBCHEM_MMFF94_ENERGY>
68.6613

> <PUBCHEM_FEATURE_SELFOVERLAP>
106.7

> <PUBCHEM_SHAPE_FINGERPRINT>
1100329 8 18123745366768319981
12156800 1 13197023973519424450
12166972 35 18130496501022144095
12553582 1 18340787969304614174
12788726 201 17978508633338692145
13533116 47 18340760559704052621
14251757 17 17458346342858879171
19026451 147 18342733061314629023
20511986 3 17201940312982491873
20764821 26 18335143085186867242
20775438 99 17905296853273041527
23559900 14 18114453565510046205
238 59 18262236754108610855
238918 7 17474667729458096358
3298306 158 18049434039674436781
35225 105 17051348678668285784
392239 28 18413103962277473504
463206 1 18410288146889472887
57527585 103 17172114745249473459

> <PUBCHEM_SHAPE_MULTIPOLES>
579.27
8.49
5.77
2.17
6.16
3.34
-1.06
-5.18
2.4
-5.56
-1.7
1.81
-0.22
0.25

> <PUBCHEM_SHAPE_SELFOVERLAP>
1165.322

> <PUBCHEM_SHAPE_VOLUME>
335.3

> <PUBCHEM_COORDINATE_TYPE>
2
5
10

$$$$
