44253991
  -OEChem-09122013473D

 56 58  0     1  0  0  0  0  0999 V2000
   -0.3878   -1.8106   -0.0498 O   0  0  0  0  0  0  0  0  0  0  0  0
    1.3012   -1.2861   -1.5620 O   0  0  0  0  0  0  0  0  0  0  0  0
   -1.8705   -0.0091   -0.0621 O   0  0  0  0  0  0  0  0  0  0  0  0
   -2.4504   -3.4866   -1.0217 O   0  0  0  0  0  0  0  0  0  0  0  0
   -5.1186   -2.5165   -0.2342 O   0  0  0  0  0  0  0  0  0  0  0  0
   -5.4211    0.2769   -0.9134 O   0  0  0  0  0  0  0  0  0  0  0  0
    0.5653   -2.2294    3.4972 O   0  0  0  0  0  0  0  0  0  0  0  0
   -2.0092    2.7191   -0.3663 O   0  0  0  0  0  0  0  0  0  0  0  0
    5.5823   -0.0407   -0.2608 O   0  0  0  0  0  0  0  0  0  0  0  0
    4.9109    0.6641   -2.3613 O   0  0  0  0  0  0  0  0  0  0  0  0
   -2.8292    4.5734    0.7410 O   0  0  0  0  0  0  0  0  0  0  0  0
    1.7091   -1.0935    0.8810 C   0  0  2  0  0  0  0  0  0  0  0  0
    3.0470   -0.3671    0.6109 C   0  0  2  0  0  0  0  0  0  0  0  0
    0.7238   -0.9478   -0.2938 C   0  0  2  0  0  0  0  0  0  0  0  0
    2.9039    1.0144    1.2675 C   0  0  0  0  0  0  0  0  0  0  0  0
    1.2352   -0.3933    2.1313 C   0  0  0  0  0  0  0  0  0  0  0  0
   -1.5851   -1.2878   -0.6243 C   0  0  2  0  0  0  0  0  0  0  0  0
    1.8907    0.7570    2.3325 C   0  0  0  0  0  0  0  0  0  0  0  0
    3.3810   -0.3201   -0.8419 C   0  0  0  0  0  0  0  0  0  0  0  0
   -2.7181   -2.2695   -0.3256 C   0  0  1  0  0  0  0  0  0  0  0  0
   -4.0689   -1.7136   -0.7765 C   0  0  2  0  0  0  0  0  0  0  0  0
   -4.2688   -0.2796   -0.2858 C   0  0  1  0  0  0  0  0  0  0  0  0
   -3.0477    0.5822   -0.6150 C   0  0  1  0  0  0  0  0  0  0  0  0
    0.1695   -0.9599    2.9999 C   0  0  0  0  0  0  0  0  0  0  0  0
    2.5537   -0.7824   -1.7838 C   0  0  0  0  0  0  0  0  0  0  0  0
   -3.1739    1.9865   -0.0327 C   0  0  0  0  0  0  0  0  0  0  0  0
    4.6948    0.1641   -1.2676 C   0  0  0  0  0  0  0  0  0  0  0  0
   -1.9623    4.0117    0.0853 C   0  0  0  0  0  0  0  0  0  0  0  0
    6.9231    0.3840   -0.5273 C   0  0  0  0  0  0  0  0  0  0  0  0
   -0.6799    4.6601   -0.3407 C   0  0  0  0  0  0  0  0  0  0  0  0
    1.9063   -2.1550    1.0791 H   0  0  0  0  0  0  0  0  0  0  0  0
    3.8241   -0.9299    1.1500 H   0  0  0  0  0  0  0  0  0  0  0  0
    0.4073    0.1024   -0.3586 H   0  0  0  0  0  0  0  0  0  0  0  0
    2.5423    1.7848    0.5773 H   0  0  0  0  0  0  0  0  0  0  0  0
    3.8555    1.3439    1.6968 H   0  0  0  0  0  0  0  0  0  0  0  0
   -1.4311   -1.1935   -1.7079 H   0  0  0  0  0  0  0  0  0  0  0  0
   -2.7406   -2.5147    0.7429 H   0  0  0  0  0  0  0  0  0  0  0  0
    1.7067    1.4344    3.1542 H   0  0  0  0  0  0  0  0  0  0  0  0
   -4.1724   -1.7716   -1.8664 H   0  0  0  0  0  0  0  0  0  0  0  0
   -4.4546   -0.2827    0.7952 H   0  0  0  0  0  0  0  0  0  0  0  0
   -2.9126    0.6765   -1.7012 H   0  0  0  0  0  0  0  0  0  0  0  0
   -0.7666   -1.0739    2.4466 H   0  0  0  0  0  0  0  0  0  0  0  0
   -0.0268   -0.3075    3.8575 H   0  0  0  0  0  0  0  0  0  0  0  0
    2.7942   -0.8482   -2.8366 H   0  0  0  0  0  0  0  0  0  0  0  0
   -3.2528    1.9327    1.0601 H   0  0  0  0  0  0  0  0  0  0  0  0
   -4.0566    2.4947   -0.4369 H   0  0  0  0  0  0  0  0  0  0  0  0
   -2.4251   -3.2901   -1.9737 H   0  0  0  0  0  0  0  0  0  0  0  0
   -5.0426   -2.4993    0.7351 H   0  0  0  0  0  0  0  0  0  0  0  0
   -5.2607    0.2969   -1.8723 H   0  0  0  0  0  0  0  0  0  0  0  0
   -0.1627   -2.5593    4.0512 H   0  0  0  0  0  0  0  0  0  0  0  0
    7.5309    0.1636    0.3542 H   0  0  0  0  0  0  0  0  0  0  0  0
    6.9486    1.4623   -0.7113 H   0  0  0  0  0  0  0  0  0  0  0  0
    7.3310   -0.1640   -1.3820 H   0  0  0  0  0  0  0  0  0  0  0  0
    0.1684    4.1090    0.0731 H   0  0  0  0  0  0  0  0  0  0  0  0
   -0.6477    5.6854    0.0387 H   0  0  0  0  0  0  0  0  0  0  0  0
   -0.6249    4.6893   -1.4318 H   0  0  0  0  0  0  0  0  0  0  0  0
  1 14  1  0  0  0  0
  1 17  1  0  0  0  0
  2 14  1  0  0  0  0
  2 25  1  0  0  0  0
  3 17  1  0  0  0  0
  3 23  1  0  0  0  0
  4 20  1  0  0  0  0
  4 47  1  0  0  0  0
  5 21  1  0  0  0  0
  5 48  1  0  0  0  0
  6 22  1  0  0  0  0
  6 49  1  0  0  0  0
  7 24  1  0  0  0  0
  7 50  1  0  0  0  0
  8 26  1  0  0  0  0
  8 28  1  0  0  0  0
  9 27  1  0  0  0  0
  9 29  1  0  0  0  0
 10 27  2  0  0  0  0
 11 28  2  0  0  0  0
 12 13  1  0  0  0  0
 12 14  1  0  0  0  0
 12 16  1  0  0  0  0
 12 31  1  0  0  0  0
 13 15  1  0  0  0  0
 13 19  1  0  0  0  0
 13 32  1  0  0  0  0
 14 33  1  0  0  0  0
 15 18  1  0  0  0  0
 15 34  1  0  0  0  0
 15 35  1  0  0  0  0
 16 18  2  0  0  0  0
 16 24  1  0  0  0  0
 17 20  1  0  0  0  0
 17 36  1  0  0  0  0
 18 38  1  0  0  0  0
 19 25  2  0  0  0  0
 19 27  1  0  0  0  0
 20 21  1  0  0  0  0
 20 37  1  0  0  0  0
 21 22  1  0  0  0  0
 21 39  1  0  0  0  0
 22 23  1  0  0  0  0
 22 40  1  0  0  0  0
 23 26  1  0  0  0  0
 23 41  1  0  0  0  0
 24 42  1  0  0  0  0
 24 43  1  0  0  0  0
 25 44  1  0  0  0  0
 26 45  1  0  0  0  0
 26 46  1  0  0  0  0
 28 30  1  0  0  0  0
 29 51  1  0  0  0  0
 29 52  1  0  0  0  0
 29 53  1  0  0  0  0
 30 54  1  0  0  0  0
 30 55  1  0  0  0  0
 30 56  1  0  0  0  0
M  END
> <PUBCHEM_COMPOUND_CID>
44253991

> <PUBCHEM_CONFORMER_RMSD>
1

> <PUBCHEM_CONFORMER_DIVERSEORDER>
1
48
45
31
26
52
29
10
51
47
19
40
34
14
41
22
38
35
42
30
43
21
33
49
20
6
16
27
44
32
17
9
37
28
50
13
7
2
23
11
4
24
46
15
25
5
36
39
8
12
18
3

> <PUBCHEM_MMFF94_PARTIAL_CHARGES>
36
1 -0.56
10 -0.57
11 -0.57
12 0.14
13 0.14
14 0.56
15 0.14
16 -0.28
17 0.56
18 -0.29
19 -0.12
2 -0.36
20 0.28
21 0.28
22 0.28
23 0.28
24 0.42
25 -0.07
26 0.28
27 0.71
28 0.66
29 0.28
3 -0.56
30 0.06
38 0.15
4 -0.68
44 0.15
47 0.4
48 0.4
49 0.4
5 -0.68
50 0.4
6 -0.68
7 -0.68
8 -0.43
9 -0.43

> <PUBCHEM_EFFECTIVE_ROTOR_COUNT>
9.8

> <PUBCHEM_PHARMACOPHORE_FEATURES>
16
1 1 acceptor
1 10 acceptor
1 11 acceptor
1 2 acceptor
1 3 acceptor
1 4 acceptor
1 4 donor
1 5 acceptor
1 5 donor
1 6 acceptor
1 6 donor
1 7 acceptor
1 7 donor
5 12 13 15 16 18 rings
6 2 12 13 14 19 25 rings
6 3 17 20 21 22 23 rings

> <PUBCHEM_HEAVY_ATOM_COUNT>
30

> <PUBCHEM_ATOM_DEF_STEREO_COUNT>
8

> <PUBCHEM_ATOM_UDEF_STEREO_COUNT>
0

> <PUBCHEM_BOND_DEF_STEREO_COUNT>
0

> <PUBCHEM_BOND_UDEF_STEREO_COUNT>
0

> <PUBCHEM_ISOTOPIC_ATOM_COUNT>
0

> <PUBCHEM_COMPONENT_COUNT>
1

> <PUBCHEM_CACTVS_TAUTO_COUNT>
1

> <PUBCHEM_CONFORMER_ID>
02A3432700000001

> <PUBCHEM_MMFF94_ENERGY>
69.8492

> <PUBCHEM_FEATURE_SELFOVERLAP>
81.432

> <PUBCHEM_SHAPE_FINGERPRINT>
10165383 225 17915474813272196329
10366900 7 17917422121215868799
10498660 4 18338506470198304349
10670039 82 18410571747801057556
11049842 53 17765701430447838307
11421498 54 18186515488658834427
1200032 147 17833289535488913945
12107183 9 17759236302688451410
12107698 1 18408884070561707012
12236239 1 17676481770007776918
12293681 4 18188502375184912866
12596602 18 17313391166053149671
12788726 201 18335694997786624345
13726171 33 18199755743404404952
13782708 43 17488741314885283015
13965767 371 17320710357208924349
14251757 17 17845935130868519880
151778 21 17260757244111590017
15961568 22 18124866017956263680
17357779 13 16056602019760219866
17921350 177 15875891502314271236
19319366 153 17679307368830690225
21033648 29 17632283628150341779
21033650 10 18192458328180694326
21792961 116 17775297066951823214
22182313 1 17489007315589827800
23559900 14 18202277043735600183
3493558 16 17680439046054225244
3524813 1 17775563156411251695
46194498 28 17632572781953440988
469060 322 18126031422755731499
5252454 2 17769657491039581825
563151 74 16009597841722598461
6287921 2 17554878150676454017
6700243 42 17699325275257467446
6823239 73 18200866374453881945
7808743 9 18267587913971582116

> <PUBCHEM_SHAPE_MULTIPOLES>
552.82
10.95
4.25
2.28
7.99
6.3
2.1
-0.57
-5.68
-6.7
0.01
2.23
-1.08
-0.78

> <PUBCHEM_SHAPE_SELFOVERLAP>
1159.838

> <PUBCHEM_SHAPE_VOLUME>
307.5

> <PUBCHEM_COORDINATE_TYPE>
2
5
10

$$$$
