10611205
  -OEChem-09122014063D

 36 36  0     1  0  0  0  0  0999 V2000
   -1.2840    1.8212   -0.4764 O   0  0  0  0  0  0  0  0  0  0  0  0
    3.5226    1.3523    1.2059 O   0  0  0  0  0  0  0  0  0  0  0  0
    2.4564   -1.5603   -0.1134 O   0  0  0  0  0  0  0  0  0  0  0  0
   -3.3152   -2.4127   -0.1990 O   0  0  0  0  0  0  0  0  0  0  0  0
   -0.9911    0.4941   -2.3445 O   0  0  0  0  0  0  0  0  0  0  0  0
    2.2577    0.0572   -1.7454 O   0  0  0  0  0  0  0  0  0  0  0  0
    0.1251   -0.2424    0.9456 C   0  0  2  0  0  0  0  0  0  0  0  0
   -0.9447   -0.4690   -0.1374 C   0  0  1  0  0  0  0  0  0  0  0  0
   -0.6009    0.4828    2.0880 C   0  0  0  0  0  0  0  0  0  0  0  0
    1.3954    0.4630    0.4941 C   0  0  1  0  0  0  0  0  0  0  0  0
   -2.2058   -0.4929    0.6781 C   0  0  0  0  0  0  0  0  0  0  0  0
   -2.0134    0.0334    1.8956 C   0  0  0  0  0  0  0  0  0  0  0  0
    2.3668    0.6569    1.6586 C   0  0  0  0  0  0  0  0  0  0  0  0
   -1.0712    0.6453   -1.1328 C   0  0  0  0  0  0  0  0  0  0  0  0
   -3.4779   -1.0437    0.1399 C   0  0  0  0  0  0  0  0  0  0  0  0
    2.0734   -0.3447   -0.6037 C   0  0  0  0  0  0  0  0  0  0  0  0
   -1.4236    2.9751   -1.3112 C   0  0  0  0  0  0  0  0  0  0  0  0
    3.1303   -2.4157   -1.0420 C   0  0  0  0  0  0  0  0  0  0  0  0
    0.3961   -1.2387    1.3324 H   0  0  0  0  0  0  0  0  0  0  0  0
   -0.7707   -1.4155   -0.6599 H   0  0  0  0  0  0  0  0  0  0  0  0
   -0.2198    0.1596    3.0621 H   0  0  0  0  0  0  0  0  0  0  0  0
   -0.5339    1.5738    2.0268 H   0  0  0  0  0  0  0  0  0  0  0  0
    1.1814    1.4504    0.0690 H   0  0  0  0  0  0  0  0  0  0  0  0
   -2.7810    0.1411    2.6484 H   0  0  0  0  0  0  0  0  0  0  0  0
    2.6954   -0.2946    2.0891 H   0  0  0  0  0  0  0  0  0  0  0  0
    1.9259    1.2528    2.4633 H   0  0  0  0  0  0  0  0  0  0  0  0
   -4.2855   -0.9675    0.8756 H   0  0  0  0  0  0  0  0  0  0  0  0
   -3.7813   -0.4943   -0.7570 H   0  0  0  0  0  0  0  0  0  0  0  0
    3.2316    2.2157    0.8662 H   0  0  0  0  0  0  0  0  0  0  0  0
   -4.1658   -2.7225   -0.5540 H   0  0  0  0  0  0  0  0  0  0  0  0
   -0.5092    3.1353   -1.8904 H   0  0  0  0  0  0  0  0  0  0  0  0
   -1.5875    3.8427   -0.6666 H   0  0  0  0  0  0  0  0  0  0  0  0
   -2.2869    2.8608   -1.9736 H   0  0  0  0  0  0  0  0  0  0  0  0
    2.4753   -2.6464   -1.8875 H   0  0  0  0  0  0  0  0  0  0  0  0
    4.0564   -1.9456   -1.3862 H   0  0  0  0  0  0  0  0  0  0  0  0
    3.3797   -3.3471   -0.5267 H   0  0  0  0  0  0  0  0  0  0  0  0
  1 14  1  0  0  0  0
  1 17  1  0  0  0  0
  2 13  1  0  0  0  0
  2 29  1  0  0  0  0
  3 16  1  0  0  0  0
  3 18  1  0  0  0  0
  4 15  1  0  0  0  0
  4 30  1  0  0  0  0
  5 14  2  0  0  0  0
  6 16  2  0  0  0  0
  7  8  1  0  0  0  0
  7  9  1  0  0  0  0
  7 10  1  0  0  0  0
  7 19  1  0  0  0  0
  8 11  1  0  0  0  0
  8 14  1  0  0  0  0
  8 20  1  0  0  0  0
  9 12  1  0  0  0  0
  9 21  1  0  0  0  0
  9 22  1  0  0  0  0
 10 13  1  0  0  0  0
 10 16  1  0  0  0  0
 10 23  1  0  0  0  0
 11 12  2  0  0  0  0
 11 15  1  0  0  0  0
 12 24  1  0  0  0  0
 13 25  1  0  0  0  0
 13 26  1  0  0  0  0
 15 27  1  0  0  0  0
 15 28  1  0  0  0  0
 17 31  1  0  0  0  0
 17 32  1  0  0  0  0
 17 33  1  0  0  0  0
 18 34  1  0  0  0  0
 18 35  1  0  0  0  0
 18 36  1  0  0  0  0
M  END
> <PUBCHEM_COMPOUND_CID>
10611205

> <PUBCHEM_CONFORMER_RMSD>
0.8

> <PUBCHEM_CONFORMER_DIVERSEORDER>
1
19
5
23
22
10
6
17
7
21
20
13
9
3
4
15
18
14
12
8
16
2
11

> <PUBCHEM_MMFF94_PARTIAL_CHARGES>
20
1 -0.43
10 0.06
11 -0.28
12 -0.29
13 0.28
14 0.66
15 0.42
16 0.66
17 0.28
18 0.28
2 -0.68
24 0.15
29 0.4
3 -0.43
30 0.4
4 -0.68
5 -0.57
6 -0.57
8 0.2
9 0.14

> <PUBCHEM_EFFECTIVE_ROTOR_COUNT>
7.6

> <PUBCHEM_PHARMACOPHORE_FEATURES>
7
1 2 acceptor
1 2 donor
1 4 acceptor
1 4 donor
1 5 acceptor
1 6 acceptor
5 7 8 9 11 12 rings

> <PUBCHEM_HEAVY_ATOM_COUNT>
18

> <PUBCHEM_ATOM_DEF_STEREO_COUNT>
2

> <PUBCHEM_ATOM_UDEF_STEREO_COUNT>
1

> <PUBCHEM_BOND_DEF_STEREO_COUNT>
0

> <PUBCHEM_BOND_UDEF_STEREO_COUNT>
0

> <PUBCHEM_ISOTOPIC_ATOM_COUNT>
0

> <PUBCHEM_COMPONENT_COUNT>
1

> <PUBCHEM_CACTVS_TAUTO_COUNT>
1

> <PUBCHEM_CONFORMER_ID>
00A1EA0500000001

> <PUBCHEM_MMFF94_ENERGY>
35.8555

> <PUBCHEM_FEATURE_SELFOVERLAP>
35.523

> <PUBCHEM_SHAPE_FINGERPRINT>
11578080 2 18342463599482836080
12202030 40 18412543189113082086
12423570 1 14907627718340624177
12633257 1 17272879548780652251
14181834 199 17463692352923765021
14617773 55 17095517366573954069
14787075 74 16912278483848641203
14817 1 10879126112055529321
16945 1 16298382470281015443
17775402 16 16081376322719838439
192875 21 15792273973633459458
19837323 101 18119224208960955337
20344682 1 18122613114113768488
20511035 2 14787108964646234460
20600515 1 17168420592332937169
20711985 344 17386576751662720085
21524375 3 17101706337217460005
22112679 90 16733261227689474924
22802520 49 18268982090557505428
229495 10 17917132975253571797
23402539 116 17823676728691181338
23557571 272 18260535745206403561
3286 77 18201729422383535362
353137 74 16298971842752019852
5262128 65 17459777893807737686
5845 1 8821114836213313957
81228 2 17894631418372983945

> <PUBCHEM_SHAPE_MULTIPOLES>
335.22
5.11
2.27
2.06
1.55
0.33
0.14
-2.45
0
-0.55
-1.09
0.15
0.64
1.37

> <PUBCHEM_SHAPE_SELFOVERLAP>
683.463

> <PUBCHEM_SHAPE_VOLUME>
196.1

> <PUBCHEM_COORDINATE_TYPE>
2
5
10

$$$$
