71552548
  -OEChem-09122013093D

 66 68  0     1  0  0  0  0  0999 V2000
   -0.1698    1.0498    0.0788 O   0  0  0  0  0  0  0  0  0  0  0  0
   -2.2910    0.1580   -0.3074 O   0  0  0  0  0  0  0  0  0  0  0  0
    2.5143    0.4766   -0.0716 O   0  0  0  0  0  0  0  0  0  0  0  0
    4.8134    0.9682    0.2058 O   0  0  0  0  0  0  0  0  0  0  0  0
    1.1293    4.4737    0.0307 O   0  0  0  0  0  0  0  0  0  0  0  0
   -1.6984    4.8373    0.5087 O   0  0  0  0  0  0  0  0  0  0  0  0
   -3.2551    2.7563   -0.8793 O   0  0  0  0  0  0  0  0  0  0  0  0
    6.0841   -1.4532    1.3206 O   0  0  0  0  0  0  0  0  0  0  0  0
    3.5786   -2.3858    0.5328 O   0  0  0  0  0  0  0  0  0  0  0  0
   -5.4764   -0.6262    2.2618 O   0  0  0  0  0  0  0  0  0  0  0  0
    7.7905   -1.9646   -0.8357 O   0  0  0  0  0  0  0  0  0  0  0  0
   -4.4714   -1.7578   -1.0826 C   0  0  0  0  0  0  0  0  0  0  0  0
   -2.9831   -2.0883   -0.7343 C   0  0  1  0  0  0  0  0  0  0  0  0
    0.7644    2.0993   -0.1800 C   0  0  1  0  0  0  0  0  0  0  0  0
   -5.0307   -0.7198   -0.0903 C   0  0  0  0  0  0  0  0  0  0  0  0
    0.2276    3.4232    0.3692 C   0  0  2  0  0  0  0  0  0  0  0  0
   -1.9940   -0.9707   -1.1026 C   0  0  0  0  0  0  0  0  0  0  0  0
   -1.4151    1.2499   -0.5859 C   0  0  1  0  0  0  0  0  0  0  0  0
   -1.1513    3.7331   -0.2137 C   0  0  1  0  0  0  0  0  0  0  0  0
   -2.0872    2.5305   -0.0906 C   0  0  1  0  0  0  0  0  0  0  0  0
   -2.8150   -2.4301    0.7391 C   0  0  0  0  0  0  0  0  0  0  0  0
    5.6667   -1.2278   -0.0263 C   0  0  1  0  0  0  0  0  0  0  0  0
    4.1538   -1.2767   -0.1299 C   0  0  2  0  0  0  0  0  0  0  0  0
   -4.6147   -1.2006   -2.5138 C   0  0  0  0  0  0  0  0  0  0  0  0
   -5.3245   -3.0505   -1.0196 C   0  0  0  0  0  0  0  0  0  0  0  0
    3.7451    0.0497    0.4940 C   0  0  2  0  0  0  0  0  0  0  0  0
    2.0860    1.7106    0.4751 C   0  0  0  0  0  0  0  0  0  0  0  0
    5.9212    0.2345   -0.3550 C   0  0  0  0  0  0  0  0  0  0  0  0
   -4.7795   -1.0842    1.3570 C   0  0  0  0  0  0  0  0  0  0  0  0
   -3.6410   -1.9717    1.6922 C   0  0  0  0  0  0  0  0  0  0  0  0
    6.3957   -2.1994   -0.9384 C   0  0  0  0  0  0  0  0  0  0  0  0
   -1.6724   -3.3432    1.0911 C   0  0  0  0  0  0  0  0  0  0  0  0
   -2.7033   -2.9718   -1.3254 H   0  0  0  0  0  0  0  0  0  0  0  0
    0.9289    2.1599   -1.2645 H   0  0  0  0  0  0  0  0  0  0  0  0
   -6.1190   -0.6506   -0.2205 H   0  0  0  0  0  0  0  0  0  0  0  0
   -4.6385    0.2856   -0.2651 H   0  0  0  0  0  0  0  0  0  0  0  0
    0.1649    3.3860    1.4636 H   0  0  0  0  0  0  0  0  0  0  0  0
   -1.2517    1.3126   -1.6709 H   0  0  0  0  0  0  0  0  0  0  0  0
   -2.0536   -0.7247   -2.1680 H   0  0  0  0  0  0  0  0  0  0  0  0
   -0.9651   -1.2970   -0.9069 H   0  0  0  0  0  0  0  0  0  0  0  0
   -1.0700    4.0610   -1.2567 H   0  0  0  0  0  0  0  0  0  0  0  0
   -2.4243    2.4100    0.9458 H   0  0  0  0  0  0  0  0  0  0  0  0
    3.8395   -1.3149   -1.1811 H   0  0  0  0  0  0  0  0  0  0  0  0
   -4.9602   -3.7926   -1.7394 H   0  0  0  0  0  0  0  0  0  0  0  0
   -4.1420   -1.8655   -3.2452 H   0  0  0  0  0  0  0  0  0  0  0  0
   -4.1675   -0.2063   -2.6155 H   0  0  0  0  0  0  0  0  0  0  0  0
   -5.6704   -1.0985   -2.7917 H   0  0  0  0  0  0  0  0  0  0  0  0
   -6.3729   -2.8431   -1.2638 H   0  0  0  0  0  0  0  0  0  0  0  0
   -5.3102   -3.5189   -0.0307 H   0  0  0  0  0  0  0  0  0  0  0  0
    3.6372   -0.0408    1.5823 H   0  0  0  0  0  0  0  0  0  0  0  0
    1.9461    1.5884    1.5561 H   0  0  0  0  0  0  0  0  0  0  0  0
    2.8378    2.4867    0.2957 H   0  0  0  0  0  0  0  0  0  0  0  0
    6.8451    0.6273    0.0802 H   0  0  0  0  0  0  0  0  0  0  0  0
    5.9221    0.4239   -1.4340 H   0  0  0  0  0  0  0  0  0  0  0  0
   -3.5080   -2.2276    2.7378 H   0  0  0  0  0  0  0  0  0  0  0  0
    6.0954   -2.0747   -1.9838 H   0  0  0  0  0  0  0  0  0  0  0  0
    6.2066   -3.2338   -0.6329 H   0  0  0  0  0  0  0  0  0  0  0  0
   -0.7145   -2.8831    0.8307 H   0  0  0  0  0  0  0  0  0  0  0  0
   -1.7635   -4.2900    0.5491 H   0  0  0  0  0  0  0  0  0  0  0  0
   -1.6459   -3.5769    2.1608 H   0  0  0  0  0  0  0  0  0  0  0  0
    1.2026    4.5061   -0.9385 H   0  0  0  0  0  0  0  0  0  0  0  0
   -1.7998    4.5702    1.4382 H   0  0  0  0  0  0  0  0  0  0  0  0
   -2.9785    2.8584   -1.8059 H   0  0  0  0  0  0  0  0  0  0  0  0
    7.0522   -1.3650    1.3508 H   0  0  0  0  0  0  0  0  0  0  0  0
    2.6131   -2.2742    0.5033 H   0  0  0  0  0  0  0  0  0  0  0  0
    8.2320   -2.6006   -1.4240 H   0  0  0  0  0  0  0  0  0  0  0  0
  1 14  1  0  0  0  0
  1 18  1  0  0  0  0
  2 17  1  0  0  0  0
  2 18  1  0  0  0  0
  3 26  1  0  0  0  0
  3 27  1  0  0  0  0
  4 26  1  0  0  0  0
  4 28  1  0  0  0  0
  5 16  1  0  0  0  0
  5 61  1  0  0  0  0
  6 19  1  0  0  0  0
  6 62  1  0  0  0  0
  7 20  1  0  0  0  0
  7 63  1  0  0  0  0
  8 22  1  0  0  0  0
  8 64  1  0  0  0  0
  9 23  1  0  0  0  0
  9 65  1  0  0  0  0
 10 29  2  0  0  0  0
 11 31  1  0  0  0  0
 11 66  1  0  0  0  0
 12 13  1  0  0  0  0
 12 15  1  0  0  0  0
 12 24  1  0  0  0  0
 12 25  1  0  0  0  0
 13 17  1  0  0  0  0
 13 21  1  0  0  0  0
 13 33  1  0  0  0  0
 14 16  1  0  0  0  0
 14 27  1  0  0  0  0
 14 34  1  0  0  0  0
 15 29  1  0  0  0  0
 15 35  1  0  0  0  0
 15 36  1  0  0  0  0
 16 19  1  0  0  0  0
 16 37  1  0  0  0  0
 17 39  1  0  0  0  0
 17 40  1  0  0  0  0
 18 20  1  0  0  0  0
 18 38  1  0  0  0  0
 19 20  1  0  0  0  0
 19 41  1  0  0  0  0
 20 42  1  0  0  0  0
 21 30  2  0  0  0  0
 21 32  1  0  0  0  0
 22 23  1  0  0  0  0
 22 28  1  0  0  0  0
 22 31  1  0  0  0  0
 23 26  1  0  0  0  0
 23 43  1  0  0  0  0
 24 45  1  0  0  0  0
 24 46  1  0  0  0  0
 24 47  1  0  0  0  0
 25 44  1  0  0  0  0
 25 48  1  0  0  0  0
 25 49  1  0  0  0  0
 26 50  1  0  0  0  0
 27 51  1  0  0  0  0
 27 52  1  0  0  0  0
 28 53  1  0  0  0  0
 28 54  1  0  0  0  0
 29 30  1  0  0  0  0
 30 55  1  0  0  0  0
 31 56  1  0  0  0  0
 31 57  1  0  0  0  0
 32 58  1  0  0  0  0
 32 59  1  0  0  0  0
 32 60  1  0  0  0  0
M  END
> <PUBCHEM_COMPOUND_CID>
71552548

> <PUBCHEM_CONFORMER_RMSD>
1

> <PUBCHEM_CONFORMER_DIVERSEORDER>
1
108
209
170
121
21
47
210
173
139
22
179
168
207
156
163
89
115
208
155
119
206
96
7
36
175
198
190
99
151
184
23
76
80
194
51
172
62
124
149
87
166
147
200
85
135
165
145
150
43
104
114
92
136
60
77
61
180
125
174
55
111
79
203
73
162
32
160
58
205
117
169
49
105
107
9
143
46
137
35
152
26
118
31
138
110
48
177
54
159
183
66
142
211
148
13
67
202
131
20
127
199
57
197
133
91
181
122
191
5
90
101
141
78
29
100
45
158
116
164
161
40
50
2
146
129
102
154
192
201
65
63
86
123
72
82
42
39
17
30
94
140
182
11
185
19
64
112
25
28
103
74
106
14
81
70
68
4
18
15
126
212
6
176
3
109
157
189
178
8
34
52
204
93
120
130
195
134
97
37
171
132
27
188
88
98
83
113
144
53
69
16
95
186
44
10
187
75
84
167
196
41
38
59
12
193
128
153
24
71
33
56

> <PUBCHEM_MMFF94_PARTIAL_CHARGES>
36
1 -0.56
10 -0.57
11 -0.68
13 0.14
14 0.28
15 0.06
16 0.28
17 0.28
18 0.56
19 0.28
2 -0.56
20 0.28
21 -0.28
22 0.28
23 0.28
26 0.56
27 0.28
28 0.28
29 0.49
3 -0.56
30 -0.14
31 0.28
32 0.14
4 -0.56
5 -0.68
55 0.15
6 -0.68
61 0.4
62 0.4
63 0.4
64 0.4
65 0.4
66 0.4
7 -0.68
8 -0.68
9 -0.68

> <PUBCHEM_EFFECTIVE_ROTOR_COUNT>
9.8

> <PUBCHEM_PHARMACOPHORE_FEATURES>
21
1 1 acceptor
1 10 acceptor
1 11 acceptor
1 11 donor
1 2 acceptor
1 3 acceptor
1 4 acceptor
1 5 acceptor
1 5 donor
1 6 acceptor
1 6 donor
1 7 acceptor
1 7 donor
1 8 acceptor
1 8 donor
1 9 acceptor
1 9 donor
3 12 24 25 hydrophobe
5 4 22 23 26 28 rings
6 1 14 16 18 19 20 rings
6 12 13 15 21 29 30 rings

> <PUBCHEM_HEAVY_ATOM_COUNT>
32

> <PUBCHEM_ATOM_DEF_STEREO_COUNT>
9

> <PUBCHEM_ATOM_UDEF_STEREO_COUNT>
0

> <PUBCHEM_BOND_DEF_STEREO_COUNT>
0

> <PUBCHEM_BOND_UDEF_STEREO_COUNT>
0

> <PUBCHEM_ISOTOPIC_ATOM_COUNT>
0

> <PUBCHEM_COMPONENT_COUNT>
1

> <PUBCHEM_CACTVS_TAUTO_COUNT>
8

> <PUBCHEM_CONFORMER_ID>
0443CE2400000001

> <PUBCHEM_MMFF94_ENERGY>
94.4118

> <PUBCHEM_FEATURE_SELFOVERLAP>
106.704

> <PUBCHEM_SHAPE_FINGERPRINT>
10622 236 17341513499949237567
11049842 53 15145965581756341077
11135926 11 17975419332183006748
11809386 21 18189329079285664378
11991303 11 17971468503679270045
12107183 9 18271257101097047873
12422481 6 17632305561608760542
12553582 1 18335693983562244099
12596602 18 15769771394793807114
12760667 363 18410573998099851551
12788726 201 18335128748554657891
13533116 47 17909265029592096755
13631057 29 18411416186190629812
13690498 29 18339086995532272276
14279260 333 18188486862381238274
14866123 147 18339642240151028801
14931854 50 18114730577652343255
15042514 8 18411140195117717949
15183329 4 18334573547250239794
15250474 111 18118392944285489266
15351339 4 17969205773025909051
15361156 5 18411707581966749292
15927050 60 17980196379766842557
17627616 140 17899405398997522635
19315092 285 16556478660257687695
20101258 96 18411139121286060913
20775530 9 18333726914521657872
21795232 338 18201443541361106176
23559900 14 18265320893073017365
329604 57 18334857238687647846
4015057 19 18193830677379478147
404807 14 18266455598291038703
4073 2 18268989796662140810
437815 12 18409162251108370279
44880168 125 17203331079248526590
463206 1 18263646323942518274
513202 73 18270965644168234174
5309563 4 18411696629510643462
56633871 153 18270686475694456019
613672 6 18264473148159266922
7970288 3 18340481274438671278
9896288 288 18052546473715201745

> <PUBCHEM_SHAPE_MULTIPOLES>
593.98
15.91
5.33
1.46
23.46
6.41
0
-16.52
-1.4
-1.52
0.29
-2.36
-0.98
0.42

> <PUBCHEM_SHAPE_SELFOVERLAP>
1233.324

> <PUBCHEM_SHAPE_VOLUME>
335.7

> <PUBCHEM_COORDINATE_TYPE>
2
5
10

$$$$
