11671431
  -OEChem-09122013583D

 71 73  0     1  0  0  0  0  0999 V2000
   -1.4894   -1.3542   -1.1307 O   0  0  0  0  0  0  0  0  0  0  0  0
    2.7607   -0.9374   -0.7138 O   0  0  0  0  0  0  0  0  0  0  0  0
   -0.7701   -2.3505    1.4192 O   0  0  0  0  0  0  0  0  0  0  0  0
    0.7095   -0.5979   -2.6376 O   0  0  0  0  0  0  0  0  0  0  0  0
    1.0230   -5.3431    0.8992 O   0  0  0  0  0  0  0  0  0  0  0  0
   -0.3799   -4.6082    2.5809 O   0  0  0  0  0  0  0  0  0  0  0  0
   -3.2701   -2.3267   -2.2358 O   0  0  0  0  0  0  0  0  0  0  0  0
    2.6567    0.4712    1.1145 O   0  0  0  0  0  0  0  0  0  0  0  0
   -5.3816    4.1695    0.8823 O   0  0  0  0  0  0  0  0  0  0  0  0
   -9.2552    1.4707    0.0773 O   0  0  0  0  0  0  0  0  0  0  0  0
   -8.1264    3.8220    1.0089 O   0  0  0  0  0  0  0  0  0  0  0  0
    9.5732    3.1622    1.8428 O   0  0  0  0  0  0  0  0  0  0  0  0
   10.6292    2.7264   -0.6903 O   0  0  0  0  0  0  0  0  0  0  0  0
    0.0824   -3.2113    0.6724 C   0  0  1  0  0  0  0  0  0  0  0  0
   -0.6081   -2.3589   -1.6339 C   0  0  2  0  0  0  0  0  0  0  0  0
    1.4223   -1.3726   -0.4739 C   0  0  2  0  0  0  0  0  0  0  0  0
   -0.5799   -3.5511   -0.6710 C   0  0  0  0  0  0  0  0  0  0  0  0
    1.4573   -2.5666    0.4845 C   0  0  0  0  0  0  0  0  0  0  0  0
    0.7894   -1.7594   -1.8122 C   0  0  2  0  0  0  0  0  0  0  0  0
    0.1949   -4.4503    1.5124 C   0  0  0  0  0  0  0  0  0  0  0  0
   -2.7931   -1.4648   -1.5147 C   0  0  0  0  0  0  0  0  0  0  0  0
    3.2470   -0.0123    0.1614 C   0  0  0  0  0  0  0  0  0  0  0  0
    1.2212   -6.5771    1.5963 C   0  0  0  0  0  0  0  0  0  0  0  0
   -3.5436   -0.3454   -0.9018 C   0  0  0  0  0  0  0  0  0  0  0  0
    4.6324    0.3136   -0.2463 C   0  0  0  0  0  0  0  0  0  0  0  0
   -4.8595   -0.2289   -1.1303 C   0  0  0  0  0  0  0  0  0  0  0  0
    5.3359    1.2090    0.4612 C   0  0  0  0  0  0  0  0  0  0  0  0
   -5.7152    0.8321   -0.5706 C   0  0  0  0  0  0  0  0  0  0  0  0
    6.7226    1.6082    0.1626 C   0  0  0  0  0  0  0  0  0  0  0  0
   -7.0973    0.6536   -0.5086 C   0  0  0  0  0  0  0  0  0  0  0  0
   -5.1430    2.0150   -0.1024 C   0  0  0  0  0  0  0  0  0  0  0  0
    7.5056    2.2032    1.1519 C   0  0  0  0  0  0  0  0  0  0  0  0
    7.2524    1.3908   -1.1093 C   0  0  0  0  0  0  0  0  0  0  0  0
   -5.9529    3.0193    0.4278 C   0  0  0  0  0  0  0  0  0  0  0  0
   -7.9071    1.6579    0.0216 C   0  0  0  0  0  0  0  0  0  0  0  0
   -7.3349    2.8406    0.4900 C   0  0  0  0  0  0  0  0  0  0  0  0
    8.8184    2.5808    0.8694 C   0  0  0  0  0  0  0  0  0  0  0  0
    8.5652    1.7686   -1.3919 C   0  0  0  0  0  0  0  0  0  0  0  0
    9.3481    2.3634   -0.4026 C   0  0  0  0  0  0  0  0  0  0  0  0
   -3.9626    4.2719    0.7822 C   0  0  0  0  0  0  0  0  0  0  0  0
   -9.7775    0.8665    1.2590 C   0  0  0  0  0  0  0  0  0  0  0  0
   -0.9533   -2.6900   -2.6221 H   0  0  0  0  0  0  0  0  0  0  0  0
    0.8363   -0.5507   -0.0410 H   0  0  0  0  0  0  0  0  0  0  0  0
   -0.0433   -4.3723   -1.1630 H   0  0  0  0  0  0  0  0  0  0  0  0
   -1.6056   -3.9004   -0.4956 H   0  0  0  0  0  0  0  0  0  0  0  0
    1.8501   -2.2333    1.4542 H   0  0  0  0  0  0  0  0  0  0  0  0
    2.1894   -3.2939    0.1085 H   0  0  0  0  0  0  0  0  0  0  0  0
    1.4428   -2.4729   -2.3300 H   0  0  0  0  0  0  0  0  0  0  0  0
   -1.6623   -2.7371    1.4343 H   0  0  0  0  0  0  0  0  0  0  0  0
    0.3089   -0.8660   -3.4821 H   0  0  0  0  0  0  0  0  0  0  0  0
    1.8987   -7.1973    1.0034 H   0  0  0  0  0  0  0  0  0  0  0  0
    0.2695   -7.1052    1.7092 H   0  0  0  0  0  0  0  0  0  0  0  0
    1.6789   -6.3911    2.5725 H   0  0  0  0  0  0  0  0  0  0  0  0
   -2.9834    0.3265   -0.2624 H   0  0  0  0  0  0  0  0  0  0  0  0
    5.0302   -0.2136   -1.1057 H   0  0  0  0  0  0  0  0  0  0  0  0
   -5.3718   -0.9534   -1.7592 H   0  0  0  0  0  0  0  0  0  0  0  0
    4.8930    1.6883    1.3312 H   0  0  0  0  0  0  0  0  0  0  0  0
   -7.5537   -0.2653   -0.8702 H   0  0  0  0  0  0  0  0  0  0  0  0
   -4.0713    2.1393   -0.1887 H   0  0  0  0  0  0  0  0  0  0  0  0
    7.0965    2.3734    2.1455 H   0  0  0  0  0  0  0  0  0  0  0  0
    6.6743    0.9496   -1.9157 H   0  0  0  0  0  0  0  0  0  0  0  0
    8.9645    1.5975   -2.3881 H   0  0  0  0  0  0  0  0  0  0  0  0
   -7.5575    4.5628    1.2817 H   0  0  0  0  0  0  0  0  0  0  0  0
    9.0434    3.2331    2.6553 H   0  0  0  0  0  0  0  0  0  0  0  0
   -3.6815    5.2460    1.1962 H   0  0  0  0  0  0  0  0  0  0  0  0
   -3.6290    4.2650   -0.2612 H   0  0  0  0  0  0  0  0  0  0  0  0
   -3.4573    3.5136    1.3904 H   0  0  0  0  0  0  0  0  0  0  0  0
  -10.8636    0.7943    1.1556 H   0  0  0  0  0  0  0  0  0  0  0  0
   -9.5494    1.4776    2.1380 H   0  0  0  0  0  0  0  0  0  0  0  0
   -9.3702   -0.1416    1.3859 H   0  0  0  0  0  0  0  0  0  0  0  0
   10.8225    2.4993   -1.6161 H   0  0  0  0  0  0  0  0  0  0  0  0
  1 15  1  0  0  0  0
  1 21  1  0  0  0  0
  2 16  1  0  0  0  0
  2 22  1  0  0  0  0
  3 14  1  0  0  0  0
  3 49  1  0  0  0  0
  4 19  1  0  0  0  0
  4 50  1  0  0  0  0
  5 20  1  0  0  0  0
  5 23  1  0  0  0  0
  6 20  2  0  0  0  0
  7 21  2  0  0  0  0
  8 22  2  0  0  0  0
  9 34  1  0  0  0  0
  9 40  1  0  0  0  0
 10 35  1  0  0  0  0
 10 41  1  0  0  0  0
 11 36  1  0  0  0  0
 11 63  1  0  0  0  0
 12 37  1  0  0  0  0
 12 64  1  0  0  0  0
 13 39  1  0  0  0  0
 13 71  1  0  0  0  0
 14 17  1  0  0  0  0
 14 18  1  0  0  0  0
 14 20  1  0  0  0  0
 15 17  1  0  0  0  0
 15 19  1  0  0  0  0
 15 42  1  0  0  0  0
 16 18  1  0  0  0  0
 16 19  1  0  0  0  0
 16 43  1  0  0  0  0
 17 44  1  0  0  0  0
 17 45  1  0  0  0  0
 18 46  1  0  0  0  0
 18 47  1  0  0  0  0
 19 48  1  0  0  0  0
 21 24  1  0  0  0  0
 22 25  1  0  0  0  0
 23 51  1  0  0  0  0
 23 52  1  0  0  0  0
 23 53  1  0  0  0  0
 24 26  2  0  0  0  0
 24 54  1  0  0  0  0
 25 27  2  0  0  0  0
 25 55  1  0  0  0  0
 26 28  1  0  0  0  0
 26 56  1  0  0  0  0
 27 29  1  0  0  0  0
 27 57  1  0  0  0  0
 28 30  2  0  0  0  0
 28 31  1  0  0  0  0
 29 32  2  0  0  0  0
 29 33  1  0  0  0  0
 30 35  1  0  0  0  0
 30 58  1  0  0  0  0
 31 34  2  0  0  0  0
 31 59  1  0  0  0  0
 32 37  1  0  0  0  0
 32 60  1  0  0  0  0
 33 38  2  0  0  0  0
 33 61  1  0  0  0  0
 34 36  1  0  0  0  0
 35 36  2  0  0  0  0
 37 39  2  0  0  0  0
 38 39  1  0  0  0  0
 38 62  1  0  0  0  0
 40 65  1  0  0  0  0
 40 66  1  0  0  0  0
 40 67  1  0  0  0  0
 41 68  1  0  0  0  0
 41 69  1  0  0  0  0
 41 70  1  0  0  0  0
M  END
> <PUBCHEM_COMPOUND_CID>
11671431

> <PUBCHEM_CONFORMER_RMSD>
1.2

> <PUBCHEM_CONFORMER_DIVERSEORDER>
1
19
26
11
12
25
8
29
15
27
13
20
6
14
10
22
24
18
17
16
23
4
21
2
5
9
28
30
3
7

> <PUBCHEM_MMFF94_PARTIAL_CHARGES>
53
1 -0.43
10 -0.36
11 -0.53
12 -0.53
13 -0.53
14 0.34
15 0.28
16 0.28
19 0.28
2 -0.43
20 0.66
21 0.71
22 0.71
23 0.28
24 -0.14
25 -0.14
26 -0.18
27 -0.18
28 0.03
29 0.03
3 -0.68
30 -0.15
31 -0.15
32 -0.15
33 -0.15
34 0.08
35 0.08
36 0.08
37 0.08
38 -0.15
39 0.08
4 -0.68
40 0.28
41 0.28
49 0.4
5 -0.43
50 0.4
54 0.15
55 0.15
56 0.15
57 0.15
58 0.15
59 0.15
6 -0.57
60 0.15
61 0.15
62 0.15
63 0.45
64 0.45
7 -0.57
71 0.45
8 -0.57
9 -0.36

> <PUBCHEM_EFFECTIVE_ROTOR_COUNT>
13.2

> <PUBCHEM_PHARMACOPHORE_FEATURES>
15
1 10 acceptor
1 11 donor
1 12 donor
1 13 donor
1 3 acceptor
1 3 donor
1 4 acceptor
1 4 donor
1 6 acceptor
1 7 acceptor
1 8 acceptor
1 9 acceptor
6 14 15 16 17 18 19 rings
6 28 30 31 34 35 36 rings
6 29 32 33 37 38 39 rings

> <PUBCHEM_HEAVY_ATOM_COUNT>
41

> <PUBCHEM_ATOM_DEF_STEREO_COUNT>
4

> <PUBCHEM_ATOM_UDEF_STEREO_COUNT>
0

> <PUBCHEM_BOND_DEF_STEREO_COUNT>
2

> <PUBCHEM_BOND_UDEF_STEREO_COUNT>
0

> <PUBCHEM_ISOTOPIC_ATOM_COUNT>
0

> <PUBCHEM_COMPONENT_COUNT>
1

> <PUBCHEM_CACTVS_TAUTO_COUNT>
20

> <PUBCHEM_CONFORMER_ID>
00B2178700000001

> <PUBCHEM_MMFF94_ENERGY>
129.0688

> <PUBCHEM_FEATURE_SELFOVERLAP>
76.147

> <PUBCHEM_SHAPE_FINGERPRINT>
10055352 69 17989484139756017521
10920273 25 18335426772441416172
10939801 23 18343019944303940261
11181472 205 18408602596645494348
1200032 147 18260263049681033554
12522641 68 18273214226661616222
12988421 55 18187069663973230982
13008946 335 18186805776840390794
13726171 33 17988088782074712961
14565420 104 18335139739729564595
15347590 135 18335149722045931499
15439362 3 18130791131626172902
15444296 121 18116713105023635836
15890870 6 18410012143337223521
16992610 120 18336837459477900500
19304152 47 18260550004988865261
20505436 4 18343577439369652823
21057603 192 18194125350664855523
21133410 127 18196653995601774381
21424621 283 18410011040041876830
23522609 53 17097225059494755788
23523788 1 14418409936673231691
23729398 52 18119528739760838034
25242607 90 8790884064744994716
3918712 181 18272088236977132453
44802255 64 17275105084463076447
44880568 143 18056757857438436020
4516262 110 18335409133321689175
508180 173 17560233756025093368
57527295 17 18129083684657905902
5776283 40 18202279233926809208
6673363 416 17917145100769343821
6691757 9 17677882608357593230
6698420 124 18335419084924800954
6703917 75 18261958565056740534
9896288 288 18264488567019318415

> <PUBCHEM_SHAPE_MULTIPOLES>
767.46
32.05
7.52
1.85
25.96
10
0.2
-58.25
-4.75
-0.55
-5.23
0.52
1.55
-2.08

> <PUBCHEM_SHAPE_SELFOVERLAP>
1634.471

> <PUBCHEM_SHAPE_VOLUME>
423.5

> <PUBCHEM_COORDINATE_TYPE>
2
5
10

$$$$
