54237717
  -OEChem-09122014483D

 67 70  0     1  0  0  0  0  0999 V2000
    2.5027   -0.4247    0.3959 O   0  0  0  0  0  0  0  0  0  0  0  0
    0.3173   -1.2381    0.3138 O   0  0  0  0  0  0  0  0  0  0  0  0
    3.4610   -2.9906   -0.3150 O   0  0  0  0  0  0  0  0  0  0  0  0
    1.6185   -5.1271    0.5345 O   0  0  0  0  0  0  0  0  0  0  0  0
   -1.0708   -4.5595   -0.3604 O   0  0  0  0  0  0  0  0  0  0  0  0
   -2.2798   -0.5072   -0.2115 O   0  0  0  0  0  0  0  0  0  0  0  0
   -4.5647   -0.6451   -0.6721 O   0  0  0  0  0  0  0  0  0  0  0  0
   -2.7268    1.9947    1.0853 O   0  0  0  0  0  0  0  0  0  0  0  0
   -5.0328    3.3772    0.0325 O   0  0  0  0  0  0  0  0  0  0  0  0
   -7.3741    1.5851   -0.0074 O   0  0  0  0  0  0  0  0  0  0  0  0
    2.9175    2.0324    0.3373 C   0  0  2  0  0  0  0  0  0  0  0  0
    4.4793    2.0377    0.3629 C   0  0  0  0  0  0  0  0  0  0  0  0
    4.5493    1.8753   -1.1769 C   0  0  1  0  0  0  0  0  0  0  0  0
    2.5610    0.7233   -0.4335 C   0  0  1  0  0  0  0  0  0  0  0  0
    2.5946    3.1876   -0.6543 C   0  0  0  0  0  0  0  0  0  0  0  0
    3.7188    0.5969   -1.4429 C   0  0  0  0  0  0  0  0  0  0  0  0
    3.7146    3.0647   -1.7021 C   0  0  0  0  0  0  0  0  0  0  0  0
    2.2205    2.1950    1.6754 C   0  0  0  0  0  0  0  0  0  0  0  0
    5.1224    3.3391    0.8885 C   0  0  0  0  0  0  0  0  0  0  0  0
    5.1528    0.8937    1.1452 C   0  0  0  0  0  0  0  0  0  0  0  0
    1.6506   -1.4293   -0.1534 C   0  0  2  0  0  0  0  0  0  0  0  0
    2.1833   -2.7920    0.2896 C   0  0  1  0  0  0  0  0  0  0  0  0
    1.2418   -3.9206   -0.1311 C   0  0  2  0  0  0  0  0  0  0  0  0
   -0.5940   -2.1996   -0.2210 C   0  0  1  0  0  0  0  0  0  0  0  0
   -0.2052   -3.6040    0.2469 C   0  0  1  0  0  0  0  0  0  0  0  0
   -1.9943   -1.8160    0.2468 C   0  0  0  0  0  0  0  0  0  0  0  0
   -3.5801   -0.0783    0.1902 C   0  0  2  0  0  0  0  0  0  0  0  0
   -3.6158    1.4487    0.1110 C   0  0  1  0  0  0  0  0  0  0  0  0
   -5.0186    1.9923    0.3811 C   0  0  2  0  0  0  0  0  0  0  0  0
   -6.0638    1.2468   -0.4477 C   0  0  1  0  0  0  0  0  0  0  0  0
   -5.8851   -0.2584   -0.3077 C   0  0  0  0  0  0  0  0  0  0  0  0
    5.5542    1.8319   -1.6034 H   0  0  0  0  0  0  0  0  0  0  0  0
    1.5995    0.8549   -0.9483 H   0  0  0  0  0  0  0  0  0  0  0  0
    2.6212    4.1697   -0.1696 H   0  0  0  0  0  0  0  0  0  0  0  0
    1.6037    3.0864   -1.1110 H   0  0  0  0  0  0  0  0  0  0  0  0
    3.3467    0.5655   -2.4729 H   0  0  0  0  0  0  0  0  0  0  0  0
    4.3145   -0.3080   -1.2845 H   0  0  0  0  0  0  0  0  0  0  0  0
    3.3139    2.8851   -2.7053 H   0  0  0  0  0  0  0  0  0  0  0  0
    4.3088    3.9835   -1.7465 H   0  0  0  0  0  0  0  0  0  0  0  0
    2.4954    1.3974    2.3726 H   0  0  0  0  0  0  0  0  0  0  0  0
    1.1325    2.1673    1.5502 H   0  0  0  0  0  0  0  0  0  0  0  0
    2.4757    3.1502    2.1455 H   0  0  0  0  0  0  0  0  0  0  0  0
    6.2002    3.3388    0.6880 H   0  0  0  0  0  0  0  0  0  0  0  0
    4.7235    4.2555    0.4490 H   0  0  0  0  0  0  0  0  0  0  0  0
    4.8496   -0.1097    0.8445 H   0  0  0  0  0  0  0  0  0  0  0  0
    6.2408    0.9337    1.0143 H   0  0  0  0  0  0  0  0  0  0  0  0
    4.9454    0.9830    2.2174 H   0  0  0  0  0  0  0  0  0  0  0  0
    4.9863    3.4264    1.9725 H   0  0  0  0  0  0  0  0  0  0  0  0
    1.6693   -1.3731   -1.2514 H   0  0  0  0  0  0  0  0  0  0  0  0
    2.3413   -2.8075    1.3745 H   0  0  0  0  0  0  0  0  0  0  0  0
    1.3296   -4.1243   -1.2048 H   0  0  0  0  0  0  0  0  0  0  0  0
   -0.5722   -2.1289   -1.3171 H   0  0  0  0  0  0  0  0  0  0  0  0
   -0.3300   -3.6936    1.3330 H   0  0  0  0  0  0  0  0  0  0  0  0
   -2.0321   -1.8243    1.3431 H   0  0  0  0  0  0  0  0  0  0  0  0
   -2.7386   -2.5187   -0.1439 H   0  0  0  0  0  0  0  0  0  0  0  0
    3.3442   -2.9730   -1.2803 H   0  0  0  0  0  0  0  0  0  0  0  0
    1.5677   -4.9722    1.4931 H   0  0  0  0  0  0  0  0  0  0  0  0
   -0.9777   -4.4787   -1.3250 H   0  0  0  0  0  0  0  0  0  0  0  0
   -3.7629   -0.3993    1.2254 H   0  0  0  0  0  0  0  0  0  0  0  0
   -3.2549    1.7868   -0.8679 H   0  0  0  0  0  0  0  0  0  0  0  0
   -5.2643    1.9427    1.4485 H   0  0  0  0  0  0  0  0  0  0  0  0
   -5.9768    1.5431   -1.5002 H   0  0  0  0  0  0  0  0  0  0  0  0
   -6.1092   -0.6000    0.7108 H   0  0  0  0  0  0  0  0  0  0  0  0
   -6.5861   -0.7819   -0.9672 H   0  0  0  0  0  0  0  0  0  0  0  0
   -3.0126    1.6840    1.9614 H   0  0  0  0  0  0  0  0  0  0  0  0
   -4.8382    3.4522   -0.9173 H   0  0  0  0  0  0  0  0  0  0  0  0
   -8.0064    1.1036   -0.5679 H   0  0  0  0  0  0  0  0  0  0  0  0
  1 14  1  0  0  0  0
  1 21  1  0  0  0  0
  2 21  1  0  0  0  0
  2 24  1  0  0  0  0
  3 22  1  0  0  0  0
  3 56  1  0  0  0  0
  4 23  1  0  0  0  0
  4 57  1  0  0  0  0
  5 25  1  0  0  0  0
  5 58  1  0  0  0  0
  6 26  1  0  0  0  0
  6 27  1  0  0  0  0
  7 27  1  0  0  0  0
  7 31  1  0  0  0  0
  8 28  1  0  0  0  0
  8 65  1  0  0  0  0
  9 29  1  0  0  0  0
  9 66  1  0  0  0  0
 10 30  1  0  0  0  0
 10 67  1  0  0  0  0
 11 12  1  0  0  0  0
 11 14  1  0  0  0  0
 11 15  1  0  0  0  0
 11 18  1  0  0  0  0
 12 13  1  0  0  0  0
 12 19  1  0  0  0  0
 12 20  1  0  0  0  0
 13 16  1  0  0  0  0
 13 17  1  0  0  0  0
 13 32  1  0  0  0  0
 14 16  1  0  0  0  0
 14 33  1  0  0  0  0
 15 17  1  0  0  0  0
 15 34  1  0  0  0  0
 15 35  1  0  0  0  0
 16 36  1  0  0  0  0
 16 37  1  0  0  0  0
 17 38  1  0  0  0  0
 17 39  1  0  0  0  0
 18 40  1  0  0  0  0
 18 41  1  0  0  0  0
 18 42  1  0  0  0  0
 19 43  1  0  0  0  0
 19 44  1  0  0  0  0
 19 48  1  0  0  0  0
 20 45  1  0  0  0  0
 20 46  1  0  0  0  0
 20 47  1  0  0  0  0
 21 22  1  0  0  0  0
 21 49  1  0  0  0  0
 22 23  1  0  0  0  0
 22 50  1  0  0  0  0
 23 25  1  0  0  0  0
 23 51  1  0  0  0  0
 24 25  1  0  0  0  0
 24 26  1  0  0  0  0
 24 52  1  0  0  0  0
 25 53  1  0  0  0  0
 26 54  1  0  0  0  0
 26 55  1  0  0  0  0
 27 28  1  0  0  0  0
 27 59  1  0  0  0  0
 28 29  1  0  0  0  0
 28 60  1  0  0  0  0
 29 30  1  0  0  0  0
 29 61  1  0  0  0  0
 30 31  1  0  0  0  0
 30 62  1  0  0  0  0
 31 63  1  0  0  0  0
 31 64  1  0  0  0  0
M  END
> <PUBCHEM_COMPOUND_CID>
54237717

> <PUBCHEM_CONFORMER_RMSD>
1.4

> <PUBCHEM_CONFORMER_DIVERSEORDER>
1
85
27
79
84
117
111
113
105
110
47
44
2
18
90
102
19
97
51
66
52
59
64
116
28
8
5
78
63
13
50
121
60
3
72
83
15
89
96
94
71
80
20
57
87
95
6
41
32
56
48
43
55
109
62
16
118
9
33
11
91
101
103
99
25
39
35
42
21
86
92
14
114
49
17
120
93
65
53
54
38
75
88
73
68
26
30
67
100
76
22
4
58
23
12
29
61
36
45
74
77
31
119
7
37
115
40
24
104
69
107
98
106
82
108
112
46
10
70
34
81

> <PUBCHEM_MMFF94_PARTIAL_CHARGES>
28
1 -0.56
10 -0.68
14 0.28
2 -0.56
21 0.56
22 0.28
23 0.28
24 0.28
25 0.28
26 0.28
27 0.56
28 0.28
29 0.28
3 -0.68
30 0.28
31 0.28
4 -0.68
5 -0.68
56 0.4
57 0.4
58 0.4
6 -0.56
65 0.4
66 0.4
67 0.4
7 -0.56
8 -0.68
9 -0.68

> <PUBCHEM_EFFECTIVE_ROTOR_COUNT>
8.4

> <PUBCHEM_PHARMACOPHORE_FEATURES>
20
1 1 acceptor
1 10 acceptor
1 10 donor
1 2 acceptor
1 3 acceptor
1 3 donor
1 4 acceptor
1 4 donor
1 5 acceptor
1 5 donor
1 6 acceptor
1 7 acceptor
1 8 acceptor
1 8 donor
1 9 acceptor
1 9 donor
3 12 19 20 hydrophobe
6 2 21 22 23 24 25 rings
6 7 27 28 29 30 31 rings
7 11 12 13 14 15 16 17 rings

> <PUBCHEM_HEAVY_ATOM_COUNT>
31

> <PUBCHEM_ATOM_DEF_STEREO_COUNT>
9

> <PUBCHEM_ATOM_UDEF_STEREO_COUNT>
3

> <PUBCHEM_BOND_DEF_STEREO_COUNT>
0

> <PUBCHEM_BOND_UDEF_STEREO_COUNT>
0

> <PUBCHEM_ISOTOPIC_ATOM_COUNT>
0

> <PUBCHEM_COMPONENT_COUNT>
1

> <PUBCHEM_CACTVS_TAUTO_COUNT>
1

> <PUBCHEM_CONFORMER_ID>
033B9A1500000001

> <PUBCHEM_MMFF94_ENERGY>
118.1833

> <PUBCHEM_FEATURE_SELFOVERLAP>
101.623

> <PUBCHEM_SHAPE_FINGERPRINT>
10411042 1 17689433784997377786
10439779 11 18340756152714685752
10483366 6 18265068959604166198
10675989 125 18342460322522931872
10937287 8 18337955691723465318
11059845 2 18122319506624801400
12107183 9 18262784268883156554
12166972 35 18055349128959605355
12422481 6 17676474043477415812
12788726 201 17469326293417706410
13590594 115 17615978707332111019
1361 2 18408605868466282573
138480 1 17977948981793663970
13878862 14 18116695336844140293
13965767 371 18041828619356436254
14068700 675 17913208659815107162
14294032 229 18124325049703329787
14790565 3 18337956800199255789
14840074 17 17458631176210573885
14848178 96 18409450288826725069
14849402 71 18264211318131482738
15082195 135 18267850702357614159
15198563 99 17764591315173952751
15320467 1 18410855494852774005
15439362 3 18411420614185893574
16988056 13 18049438141426187838
18681886 176 18198054768651114203
19319366 153 18343015580194576703
20567600 9 18337964397653517836
20715895 44 18411697725117382312
21033648 29 18267305511355704248
21133410 127 18040435460388535165
21133410 221 16767578360135764360
21860390 5 18127132969997572199
23559900 14 18124587588448540955
23845131 108 18334294292739894635
245318 6 17896335760122334685
3298306 158 18271526489318134971
469060 322 17904223742676715963
474 4 18408885114212236555
513532 50 18059860532921984142
6371009 1 18265599052161071309
6523845 18 17977989865650456754
67856867 119 18339075965819086659
7288768 16 18113896117399603371
7808743 9 18120658186829761620
9849439 229 18337951302266401481
9981440 41 18335985371587608003

> <PUBCHEM_SHAPE_MULTIPOLES>
579.27
14.1
6.15
1.11
18.92
7.26
-0.06
-16.23
-0.61
-2.17
0.23
-1.39
-0.76
-0.45

> <PUBCHEM_SHAPE_SELFOVERLAP>
1218.75

> <PUBCHEM_SHAPE_VOLUME>
328

> <PUBCHEM_COORDINATE_TYPE>
2
5
10

$$$$
