11948668
  -OEChem-09122010463D

 51 53  0     1  0  0  0  0  0999 V2000
    2.6939    3.1904   -0.2693 O   0  0  0  0  0  0  0  0  0  0  0  0
   -0.6833    0.8345    0.6612 O   0  0  0  0  0  0  0  0  0  0  0  0
    0.6120   -1.0145    1.1803 O   0  0  0  0  0  0  0  0  0  0  0  0
    4.6238    0.6512   -1.6281 O   0  0  0  0  0  0  0  0  0  0  0  0
   -2.1265   -0.4436   -0.6532 O   0  0  0  0  0  0  0  0  0  0  0  0
   -2.8308    1.4236    2.4074 O   0  0  0  0  0  0  0  0  0  0  0  0
   -5.4309    1.3259    1.0252 O   0  0  0  0  0  0  0  0  0  0  0  0
   -5.7117   -1.1569   -0.4283 O   0  0  0  0  0  0  0  0  0  0  0  0
    5.2579   -1.0107    1.0238 O   0  0  0  0  0  0  0  0  0  0  0  0
    4.2540   -3.0631    0.9220 O   0  0  0  0  0  0  0  0  0  0  0  0
   -2.2247   -2.6243   -2.3238 O   0  0  0  0  0  0  0  0  0  0  0  0
    1.7029    1.0747    0.3903 C   0  0  2  0  0  0  0  0  0  0  0  0
    1.7779    2.1724   -0.6965 C   0  0  2  0  0  0  0  0  0  0  0  0
    3.0295    0.3113    0.1759 C   0  0  2  0  0  0  0  0  0  0  0  0
    3.2641    0.3395   -1.3464 C   0  0  1  0  0  0  0  0  0  0  0  0
    2.3658    1.4473   -1.9153 C   0  0  0  0  0  0  0  0  0  0  0  0
    0.4959    0.1150    0.3032 C   0  0  2  0  0  0  0  0  0  0  0  0
    2.9745   -1.0673    0.7486 C   0  0  0  0  0  0  0  0  0  0  0  0
    0.4802    2.8933   -1.0341 C   0  0  0  0  0  0  0  0  0  0  0  0
   -1.8992    0.0872    0.6503 C   0  0  2  0  0  0  0  0  0  0  0  0
    1.8440   -1.6055    1.2151 C   0  0  0  0  0  0  0  0  0  0  0  0
   -3.0344    1.0295    1.0508 C   0  0  1  0  0  0  0  0  0  0  0  0
   -4.3961    0.3469    0.9195 C   0  0  2  0  0  0  0  0  0  0  0  0
   -4.5386   -0.3476   -0.4350 C   0  0  1  0  0  0  0  0  0  0  0  0
   -3.3196   -1.2260   -0.7259 C   0  0  1  0  0  0  0  0  0  0  0  0
    4.2040   -1.8457    0.9043 C   0  0  0  0  0  0  0  0  0  0  0  0
   -3.3843   -1.8374   -2.1220 C   0  0  0  0  0  0  0  0  0  0  0  0
    1.7129    1.5305    1.3904 H   0  0  0  0  0  0  0  0  0  0  0  0
    3.8165    0.8848    0.6848 H   0  0  0  0  0  0  0  0  0  0  0  0
    3.0390   -0.6172   -1.8304 H   0  0  0  0  0  0  0  0  0  0  0  0
    2.9154    2.1295   -2.5730 H   0  0  0  0  0  0  0  0  0  0  0  0
    1.5632    0.9786   -2.4977 H   0  0  0  0  0  0  0  0  0  0  0  0
    0.3832   -0.2620   -0.7212 H   0  0  0  0  0  0  0  0  0  0  0  0
    0.6658    3.7059   -1.7464 H   0  0  0  0  0  0  0  0  0  0  0  0
   -0.2648    2.2266   -1.4789 H   0  0  0  0  0  0  0  0  0  0  0  0
    0.0476    3.3585   -0.1413 H   0  0  0  0  0  0  0  0  0  0  0  0
    2.3366    3.5910    0.5417 H   0  0  0  0  0  0  0  0  0  0  0  0
   -1.8133   -0.7307    1.3771 H   0  0  0  0  0  0  0  0  0  0  0  0
    1.7767   -2.5647    1.7110 H   0  0  0  0  0  0  0  0  0  0  0  0
    4.8199    1.5226   -1.2433 H   0  0  0  0  0  0  0  0  0  0  0  0
   -3.0080    1.9447    0.4473 H   0  0  0  0  0  0  0  0  0  0  0  0
   -4.5540   -0.3606    1.7428 H   0  0  0  0  0  0  0  0  0  0  0  0
   -4.6658    0.4078   -1.2201 H   0  0  0  0  0  0  0  0  0  0  0  0
   -3.2424   -2.0467    0.0003 H   0  0  0  0  0  0  0  0  0  0  0  0
   -3.4026   -1.0645   -2.8975 H   0  0  0  0  0  0  0  0  0  0  0  0
   -4.2617   -2.4792   -2.2429 H   0  0  0  0  0  0  0  0  0  0  0  0
   -2.8523    0.6240    2.9605 H   0  0  0  0  0  0  0  0  0  0  0  0
   -6.2805    0.8634    0.9243 H   0  0  0  0  0  0  0  0  0  0  0  0
   -5.6050   -1.8349    0.2606 H   0  0  0  0  0  0  0  0  0  0  0  0
    6.1033   -1.4969    1.1299 H   0  0  0  0  0  0  0  0  0  0  0  0
   -1.4521   -2.0449   -2.2085 H   0  0  0  0  0  0  0  0  0  0  0  0
  1 13  1  0  0  0  0
  1 37  1  0  0  0  0
  2 17  1  0  0  0  0
  2 20  1  0  0  0  0
  3 17  1  0  0  0  0
  3 21  1  0  0  0  0
  4 15  1  0  0  0  0
  4 40  1  0  0  0  0
  5 20  1  0  0  0  0
  5 25  1  0  0  0  0
  6 22  1  0  0  0  0
  6 47  1  0  0  0  0
  7 23  1  0  0  0  0
  7 48  1  0  0  0  0
  8 24  1  0  0  0  0
  8 49  1  0  0  0  0
  9 26  1  0  0  0  0
  9 50  1  0  0  0  0
 10 26  2  0  0  0  0
 11 27  1  0  0  0  0
 11 51  1  0  0  0  0
 12 13  1  0  0  0  0
 12 14  1  0  0  0  0
 12 17  1  0  0  0  0
 12 28  1  0  0  0  0
 13 16  1  0  0  0  0
 13 19  1  0  0  0  0
 14 15  1  0  0  0  0
 14 18  1  0  0  0  0
 14 29  1  0  0  0  0
 15 16  1  0  0  0  0
 15 30  1  0  0  0  0
 16 31  1  0  0  0  0
 16 32  1  0  0  0  0
 17 33  1  0  0  0  0
 18 21  2  0  0  0  0
 18 26  1  0  0  0  0
 19 34  1  0  0  0  0
 19 35  1  0  0  0  0
 19 36  1  0  0  0  0
 20 22  1  0  0  0  0
 20 38  1  0  0  0  0
 21 39  1  0  0  0  0
 22 23  1  0  0  0  0
 22 41  1  0  0  0  0
 23 24  1  0  0  0  0
 23 42  1  0  0  0  0
 24 25  1  0  0  0  0
 24 43  1  0  0  0  0
 25 27  1  0  0  0  0
 25 44  1  0  0  0  0
 27 45  1  0  0  0  0
 27 46  1  0  0  0  0
M  END
> <PUBCHEM_COMPOUND_CID>
11948668

> <PUBCHEM_CONFORMER_RMSD>
0.8

> <PUBCHEM_CONFORMER_DIVERSEORDER>
4
69
8
32
12
45
11
71
50
16
9
73
36
56
47
31
13
67
29
59
52
33
55
35
17
26
60
75
53
44
22
43
6
58
42
10
54
18
2
1
49
38
39
3
20
48
74
46
65
34
5
19
40
27
41
64
72
62
15
24
68
57
66
37
61
23
70
30
63
25
51
28
21
14
7

> <PUBCHEM_MMFF94_PARTIAL_CHARGES>
32
1 -0.68
10 -0.57
11 -0.68
13 0.28
14 0.14
15 0.28
17 0.56
18 -0.12
2 -0.56
20 0.56
21 -0.07
22 0.28
23 0.28
24 0.28
25 0.28
26 0.71
27 0.28
3 -0.36
37 0.4
39 0.15
4 -0.68
40 0.4
47 0.4
48 0.4
49 0.4
5 -0.56
50 0.5
51 0.4
6 -0.68
7 -0.68
8 -0.68
9 -0.65

> <PUBCHEM_EFFECTIVE_ROTOR_COUNT>
6.2

> <PUBCHEM_PHARMACOPHORE_FEATURES>
21
1 1 acceptor
1 1 donor
1 10 acceptor
1 11 acceptor
1 11 donor
1 2 acceptor
1 3 acceptor
1 4 acceptor
1 4 donor
1 5 acceptor
1 6 acceptor
1 6 donor
1 7 acceptor
1 7 donor
1 8 acceptor
1 8 donor
1 9 acceptor
3 9 10 26 anion
5 12 13 14 15 16 rings
6 3 12 14 17 18 21 rings
6 5 20 22 23 24 25 rings

> <PUBCHEM_HEAVY_ATOM_COUNT>
27

> <PUBCHEM_ATOM_DEF_STEREO_COUNT>
10

> <PUBCHEM_ATOM_UDEF_STEREO_COUNT>
0

> <PUBCHEM_BOND_DEF_STEREO_COUNT>
0

> <PUBCHEM_BOND_UDEF_STEREO_COUNT>
0

> <PUBCHEM_ISOTOPIC_ATOM_COUNT>
0

> <PUBCHEM_COMPONENT_COUNT>
1

> <PUBCHEM_CACTVS_TAUTO_COUNT>
1

> <PUBCHEM_CONFORMER_ID>
00B6527C00000004

> <PUBCHEM_MMFF94_ENERGY>
83.2221

> <PUBCHEM_FEATURE_SELFOVERLAP>
106.889

> <PUBCHEM_SHAPE_FINGERPRINT>
10366900 7 16009025056225121123
10369192 42 16156838060797898980
11049842 53 17272322083326270869
11578080 2 18125409034634350169
12236239 1 18413389825871925699
12403259 327 16773218596792187026
12422481 6 17843677768798451518
12553582 1 18333735689281982570
12616971 3 18409454665862545697
12788726 201 17774450494173701939
13009979 54 18272933816899208003
13134695 92 18113900463995989276
13726171 33 17200535179908356313
13782708 43 16298396751115918779
13911987 19 17313683559486047386
14251757 17 15936684883340492974
14294032 229 17701560415795987633
15806764 133 16225764112475467007
16752209 62 17846498149863106239
17349148 13 17989203755157233037
17357779 13 17603855664238988012
17818456 19 18060141990333911393
1813 80 18263929843444708286
20511986 3 18341600521308835808
20600515 1 16988839463029274225
20612939 158 17967533475668325198
20645477 70 17675925395780745386
21033648 29 16515956051736267469
21641784 216 17242189959183400972
221357 26 17749100072273643477
23557571 272 16487267555410211472
23559900 14 13190881096512379907
23598291 2 18337676321522913667
238 59 17532920808690232574
3004659 81 18131356340615658005
338550 245 18202565051410744511
46194498 28 16877662387388392398
463206 1 18334290998415309522
474 4 18045222892923879109
5281201 14 17095238111937002383
574716 61 18337387266081919599
602551 16 17346597486658984215
633830 44 18190190159471612557
6823239 73 14779550092830347478
7471813 234 18335414639169179096
7495541 125 16081091459119660354
9971528 1 18334570222907785056
9981440 41 17544468017387177480

> <PUBCHEM_SHAPE_MULTIPOLES>
491.08
10.96
2.88
1.89
6.11
0.42
0.6
-3.64
-0.46
-2.48
0.55
0.97
-0.34
-3.53

> <PUBCHEM_SHAPE_SELFOVERLAP>
1038.551

> <PUBCHEM_SHAPE_VOLUME>
270.8

> <PUBCHEM_COORDINATE_TYPE>
2
5
10

$$$$
