11372643
  -OEChem-09122014053D

 51 53  0     1  0  0  0  0  0999 V2000
    0.5231   -0.2297   -0.8547 O   0  0  0  0  0  0  0  0  0  0  0  0
   -0.5160    0.5917    1.0890 O   0  0  0  0  0  0  0  0  0  0  0  0
    2.4869    0.8427   -0.1931 O   0  0  0  0  0  0  0  0  0  0  0  0
    1.8247   -2.7285   -0.5901 O   0  0  0  0  0  0  0  0  0  0  0  0
    4.7348   -2.5007   -0.9901 O   0  0  0  0  0  0  0  0  0  0  0  0
   -3.1761    4.0944    0.3047 O   0  0  0  0  0  0  0  0  0  0  0  0
    5.8229   -0.3985    0.6690 O   0  0  0  0  0  0  0  0  0  0  0  0
   -3.7461   -2.5344   -0.0850 O   0  0  0  0  0  0  0  0  0  0  0  0
    3.4434    3.0748    1.0949 O   0  0  0  0  0  0  0  0  0  0  0  0
   -3.7124   -1.8804    2.1355 O   0  0  0  0  0  0  0  0  0  0  0  0
   -1.5486    0.9511   -1.1484 C   0  0  1  0  0  0  0  0  0  0  0  0
   -2.5314   -0.2205   -0.9001 C   0  0  2  0  0  0  0  0  0  0  0  0
   -2.3798    2.2519   -0.9908 C   0  0  1  0  0  0  0  0  0  0  0  0
   -0.2734    0.8242   -0.3043 C   0  0  2  0  0  0  0  0  0  0  0  0
   -3.8539    0.4248   -1.1928 C   0  0  0  0  0  0  0  0  0  0  0  0
   -3.7720    1.7578   -1.2476 C   0  0  0  0  0  0  0  0  0  0  0  0
    1.7496   -0.3764   -0.1395 C   0  0  2  0  0  0  0  0  0  0  0  0
   -2.4270   -0.7501    0.4961 C   0  0  0  0  0  0  0  0  0  0  0  0
    2.5413   -1.5105   -0.7905 C   0  0  1  0  0  0  0  0  0  0  0  0
    3.9370   -1.6364   -0.1795 C   0  0  2  0  0  0  0  0  0  0  0  0
   -2.2981    2.9836    0.3435 C   0  0  0  0  0  0  0  0  0  0  0  0
    4.6345   -0.2778   -0.1083 C   0  0  1  0  0  0  0  0  0  0  0  0
    3.7184    0.7704    0.5275 C   0  0  1  0  0  0  0  0  0  0  0  0
   -1.4978   -0.3258    1.3605 C   0  0  0  0  0  0  0  0  0  0  0  0
    4.3477    2.1597    0.5032 C   0  0  0  0  0  0  0  0  0  0  0  0
   -3.3630   -1.7720    0.9703 C   0  0  0  0  0  0  0  0  0  0  0  0
   -4.6687   -3.5853    0.2202 C   0  0  0  0  0  0  0  0  0  0  0  0
   -1.2496    0.8972   -2.2081 H   0  0  0  0  0  0  0  0  0  0  0  0
   -2.3254   -1.0187   -1.6235 H   0  0  0  0  0  0  0  0  0  0  0  0
   -2.1078    2.9503   -1.7928 H   0  0  0  0  0  0  0  0  0  0  0  0
    0.2827    1.7647   -0.3922 H   0  0  0  0  0  0  0  0  0  0  0  0
   -4.7734   -0.1258   -1.3362 H   0  0  0  0  0  0  0  0  0  0  0  0
   -4.6168    2.4031   -1.4436 H   0  0  0  0  0  0  0  0  0  0  0  0
    1.5310   -0.6404    0.9034 H   0  0  0  0  0  0  0  0  0  0  0  0
    2.6103   -1.3515   -1.8740 H   0  0  0  0  0  0  0  0  0  0  0  0
    3.8912   -2.0960    0.8157 H   0  0  0  0  0  0  0  0  0  0  0  0
   -2.5817    2.3572    1.1945 H   0  0  0  0  0  0  0  0  0  0  0  0
   -1.2878    3.3648    0.5178 H   0  0  0  0  0  0  0  0  0  0  0  0
    4.9269    0.0240   -1.1225 H   0  0  0  0  0  0  0  0  0  0  0  0
    3.4978    0.5162    1.5732 H   0  0  0  0  0  0  0  0  0  0  0  0
   -1.4222   -0.6430    2.3921 H   0  0  0  0  0  0  0  0  0  0  0  0
    5.2851    2.1920    1.0653 H   0  0  0  0  0  0  0  0  0  0  0  0
    4.5294    2.4881   -0.5256 H   0  0  0  0  0  0  0  0  0  0  0  0
    2.2861   -3.4271   -1.0836 H   0  0  0  0  0  0  0  0  0  0  0  0
    4.3333   -3.3853   -0.9615 H   0  0  0  0  0  0  0  0  0  0  0  0
    6.3697    0.3871    0.5009 H   0  0  0  0  0  0  0  0  0  0  0  0
   -4.0833    3.7656    0.4209 H   0  0  0  0  0  0  0  0  0  0  0  0
    3.8605    3.9525    1.0626 H   0  0  0  0  0  0  0  0  0  0  0  0
   -4.2220   -4.2866    0.9315 H   0  0  0  0  0  0  0  0  0  0  0  0
   -5.5981   -3.1684    0.6198 H   0  0  0  0  0  0  0  0  0  0  0  0
   -4.8935   -4.1200   -0.7065 H   0  0  0  0  0  0  0  0  0  0  0  0
  1 14  1  0  0  0  0
  1 17  1  0  0  0  0
  2 14  1  0  0  0  0
  2 24  1  0  0  0  0
  3 17  1  0  0  0  0
  3 23  1  0  0  0  0
  4 19  1  0  0  0  0
  4 44  1  0  0  0  0
  5 20  1  0  0  0  0
  5 45  1  0  0  0  0
  6 21  1  0  0  0  0
  6 47  1  0  0  0  0
  7 22  1  0  0  0  0
  7 46  1  0  0  0  0
  8 26  1  0  0  0  0
  8 27  1  0  0  0  0
  9 25  1  0  0  0  0
  9 48  1  0  0  0  0
 10 26  2  0  0  0  0
 11 12  1  0  0  0  0
 11 13  1  0  0  0  0
 11 14  1  0  0  0  0
 11 28  1  0  0  0  0
 12 15  1  0  0  0  0
 12 18  1  0  0  0  0
 12 29  1  0  0  0  0
 13 16  1  0  0  0  0
 13 21  1  0  0  0  0
 13 30  1  0  0  0  0
 14 31  1  0  0  0  0
 15 16  2  0  0  0  0
 15 32  1  0  0  0  0
 16 33  1  0  0  0  0
 17 19  1  0  0  0  0
 17 34  1  0  0  0  0
 18 24  2  0  0  0  0
 18 26  1  0  0  0  0
 19 20  1  0  0  0  0
 19 35  1  0  0  0  0
 20 22  1  0  0  0  0
 20 36  1  0  0  0  0
 21 37  1  0  0  0  0
 21 38  1  0  0  0  0
 22 23  1  0  0  0  0
 22 39  1  0  0  0  0
 23 25  1  0  0  0  0
 23 40  1  0  0  0  0
 24 41  1  0  0  0  0
 25 42  1  0  0  0  0
 25 43  1  0  0  0  0
 27 49  1  0  0  0  0
 27 50  1  0  0  0  0
 27 51  1  0  0  0  0
M  END
> <PUBCHEM_COMPOUND_CID>
11372643

> <PUBCHEM_CONFORMER_RMSD>
0.8

> <PUBCHEM_CONFORMER_DIVERSEORDER>
3
89
38
77
117
115
19
111
75
68
172
147
5
26
82
158
13
163
177
107
134
72
66
37
47
127
142
45
63
12
152
167
98
144
103
162
81
166
139
159
137
49
28
11
97
121
113
120
154
149
10
181
73
83
132
131
14
183
48
4
123
110
85
88
118
174
65
133
146
169
24
2
86
78
105
23
61
182
6
178
74
20
22
40
27
59
170
129
55
57
176
130
168
153
157
54
135
42
173
34
95
1
116
64
100
69
165
164
143
67
151
87
90
148
112
58
32
122
104
71
62
36
52
106
8
124
76
17
56
138
92
30
140
94
7
156
31
145
91
46
161
171
125
21
35
99
108
101
128
60
9
114
41
136
119
150
180
33
39
160
50
179
44
141
84
96
43
53
126
70
16
93
25
109
79
18
29
51
80
175
102
15
155

> <PUBCHEM_MMFF94_PARTIAL_CHARGES>
34
1 -0.56
10 -0.57
12 0.28
13 0.14
14 0.56
15 -0.29
16 -0.29
17 0.56
18 -0.12
19 0.28
2 -0.36
20 0.28
21 0.28
22 0.28
23 0.28
24 -0.07
25 0.28
26 0.71
27 0.28
3 -0.56
32 0.15
33 0.15
4 -0.68
41 0.15
44 0.4
45 0.4
46 0.4
47 0.4
48 0.4
5 -0.68
6 -0.68
7 -0.68
8 -0.43
9 -0.68

> <PUBCHEM_EFFECTIVE_ROTOR_COUNT>
7.8

> <PUBCHEM_PHARMACOPHORE_FEATURES>
17
1 1 acceptor
1 10 acceptor
1 2 acceptor
1 3 acceptor
1 4 acceptor
1 4 donor
1 5 acceptor
1 5 donor
1 6 acceptor
1 6 donor
1 7 acceptor
1 7 donor
1 9 acceptor
1 9 donor
5 11 12 13 15 16 rings
6 2 11 12 14 18 24 rings
6 3 17 19 20 22 23 rings

> <PUBCHEM_HEAVY_ATOM_COUNT>
27

> <PUBCHEM_ATOM_DEF_STEREO_COUNT>
9

> <PUBCHEM_ATOM_UDEF_STEREO_COUNT>
0

> <PUBCHEM_BOND_DEF_STEREO_COUNT>
0

> <PUBCHEM_BOND_UDEF_STEREO_COUNT>
0

> <PUBCHEM_ISOTOPIC_ATOM_COUNT>
0

> <PUBCHEM_COMPONENT_COUNT>
1

> <PUBCHEM_CACTVS_TAUTO_COUNT>
1

> <PUBCHEM_CONFORMER_ID>
00AD886300000003

> <PUBCHEM_MMFF94_ENERGY>
75.3895

> <PUBCHEM_FEATURE_SELFOVERLAP>
86.57

> <PUBCHEM_SHAPE_FINGERPRINT>
11405975 8 18335981965667609024
12553582 1 17972904702140775327
12633257 1 17969770892248745568
12788726 201 18187635904541364387
13224815 77 18343022194449467830
13544653 18 18262805206210569875
13583140 156 18341890784110192686
14178342 30 18187371982320207334
14251764 38 18410568470957509176
15420108 30 14316534339067342880
17349148 13 16009026207038804194
17492 89 18410571803757003462
200 152 17774992449825859260
20681677 76 18411134740782824556
21033648 144 18261379032398172108
21065198 57 18338516339922062476
21065201 7 17821442444054822258
221490 88 18413108351533602854
22393880 68 18261672580454065702
23557571 272 18187363276579747449
23558518 356 18261401039330249497
23559900 14 18409440367552653924
3380486 145 18194407912552186803
4015057 19 18199451204231190061
4073 2 18336264544809773106
463206 1 18046349901264950803
469060 322 17696730517783576215
4921388 177 18114186293868720475
5104073 3 18336260168153722616
5283173 99 18114166545925722101
59755656 520 18117560618199037317
6004065 56 17905604755351971779
6913067 236 18123457538854041707
7399639 24 18197208359661771704
81228 2 17967828149612435873
9709674 26 18340484452592605398

> <PUBCHEM_SHAPE_MULTIPOLES>
496.95
11.02
4
1.3
9.61
0.83
0.23
-3.32
0.58
-3.43
0.46
-0.88
-0.09
2.48

> <PUBCHEM_SHAPE_SELFOVERLAP>
1049.117

> <PUBCHEM_SHAPE_VOLUME>
273.8

> <PUBCHEM_COORDINATE_TYPE>
2
5
10

$$$$
