101936008
  -OEChem-09122012393D

 31 33  0     1  0  0  0  0  0999 V2000
    2.6876   -0.4977    0.9717 O   0  0  0  0  0  0  0  0  0  0  0  0
    0.9158   -2.1698    0.2894 O   0  0  0  0  0  0  0  0  0  0  0  0
    0.6593    1.7036    1.1163 O   0  0  0  0  0  0  0  0  0  0  0  0
   -0.8118   -3.2663   -0.8709 O   0  0  0  0  0  0  0  0  0  0  0  0
   -2.4098    1.0386   -0.1313 O   0  0  0  0  0  0  0  0  0  0  0  0
   -1.8778   -0.3441    1.6411 O   0  0  0  0  0  0  0  0  0  0  0  0
    1.1642   -0.0451   -0.5611 C   0  0  1  0  0  0  0  0  0  0  0  0
   -0.0974   -0.0772   -1.3569 C   0  0  1  0  0  0  0  0  0  0  0  0
    1.4555    1.3282   -0.0143 C   0  0  2  0  0  0  0  0  0  0  0  0
    1.3142   -0.8658    0.6637 C   0  0  2  0  0  0  0  0  0  0  0  0
   -1.1481   -0.8794   -0.5932 C   0  0  1  0  0  0  0  0  0  0  0  0
    2.8381    0.9347    0.5211 C   0  0  0  0  0  0  0  0  0  0  0  0
   -0.1001    1.3799   -1.7569 C   0  0  0  0  0  0  0  0  0  0  0  0
    0.8824    2.0923   -1.1560 C   0  0  0  0  0  0  0  0  0  0  0  0
   -0.5211   -2.1938    0.0280 C   0  0  2  0  0  0  0  0  0  0  0  0
   -1.8425   -0.0550    0.4527 C   0  0  0  0  0  0  0  0  0  0  0  0
   -3.1086    1.9169    0.7565 C   0  0  0  0  0  0  0  0  0  0  0  0
    1.9530   -0.3448   -1.2826 H   0  0  0  0  0  0  0  0  0  0  0  0
    0.0878   -0.6435   -2.2822 H   0  0  0  0  0  0  0  0  0  0  0  0
    0.7228   -0.5769    1.5389 H   0  0  0  0  0  0  0  0  0  0  0  0
   -1.9473   -1.1784   -1.2866 H   0  0  0  0  0  0  0  0  0  0  0  0
    3.6232    0.9512   -0.2418 H   0  0  0  0  0  0  0  0  0  0  0  0
    3.1524    1.5114    1.3956 H   0  0  0  0  0  0  0  0  0  0  0  0
   -0.7335    1.7742   -2.5393 H   0  0  0  0  0  0  0  0  0  0  0  0
    1.0747    3.1379   -1.3480 H   0  0  0  0  0  0  0  0  0  0  0  0
   -1.0091   -2.4478    0.9752 H   0  0  0  0  0  0  0  0  0  0  0  0
    1.0207    2.5379    1.4624 H   0  0  0  0  0  0  0  0  0  0  0  0
   -0.8796   -4.0769   -0.3383 H   0  0  0  0  0  0  0  0  0  0  0  0
   -3.5091    2.7466    0.1681 H   0  0  0  0  0  0  0  0  0  0  0  0
   -2.4229    2.3188    1.5086 H   0  0  0  0  0  0  0  0  0  0  0  0
   -3.9405    1.3900    1.2333 H   0  0  0  0  0  0  0  0  0  0  0  0
  1 10  1  0  0  0  0
  1 12  1  0  0  0  0
  2 10  1  0  0  0  0
  2 15  1  0  0  0  0
  3  9  1  0  0  0  0
  3 27  1  0  0  0  0
  4 15  1  0  0  0  0
  4 28  1  0  0  0  0
  5 16  1  0  0  0  0
  5 17  1  0  0  0  0
  6 16  2  0  0  0  0
  7  8  1  0  0  0  0
  7  9  1  0  0  0  0
  7 10  1  0  0  0  0
  7 18  1  0  0  0  0
  8 11  1  0  0  0  0
  8 13  1  0  0  0  0
  8 19  1  0  0  0  0
  9 12  1  0  0  0  0
  9 14  1  0  0  0  0
 10 20  1  0  0  0  0
 11 15  1  0  0  0  0
 11 16  1  0  0  0  0
 11 21  1  0  0  0  0
 12 22  1  0  0  0  0
 12 23  1  0  0  0  0
 13 14  2  0  0  0  0
 13 24  1  0  0  0  0
 14 25  1  0  0  0  0
 15 26  1  0  0  0  0
 17 29  1  0  0  0  0
 17 30  1  0  0  0  0
 17 31  1  0  0  0  0
M  END
> <PUBCHEM_COMPOUND_CID>
101936008

> <PUBCHEM_CONFORMER_RMSD>
0.6

> <PUBCHEM_CONFORMER_DIVERSEORDER>
1
2

> <PUBCHEM_MMFF94_PARTIAL_CHARGES>
20
1 -0.56
10 0.56
11 0.06
12 0.28
13 -0.29
14 -0.29
15 0.56
16 0.66
17 0.28
2 -0.56
24 0.15
25 0.15
27 0.4
28 0.4
3 -0.68
4 -0.68
5 -0.43
6 -0.57
8 0.14
9 0.42

> <PUBCHEM_EFFECTIVE_ROTOR_COUNT>
3

> <PUBCHEM_PHARMACOPHORE_FEATURES>
10
1 1 acceptor
1 2 acceptor
1 3 acceptor
1 3 donor
1 4 acceptor
1 4 donor
1 6 acceptor
5 1 7 9 10 12 rings
5 7 8 9 13 14 rings
6 2 7 8 10 11 15 rings

> <PUBCHEM_HEAVY_ATOM_COUNT>
17

> <PUBCHEM_ATOM_DEF_STEREO_COUNT>
6

> <PUBCHEM_ATOM_UDEF_STEREO_COUNT>
0

> <PUBCHEM_BOND_DEF_STEREO_COUNT>
0

> <PUBCHEM_BOND_UDEF_STEREO_COUNT>
0

> <PUBCHEM_ISOTOPIC_ATOM_COUNT>
0

> <PUBCHEM_COMPONENT_COUNT>
1

> <PUBCHEM_CACTVS_TAUTO_COUNT>
2

> <PUBCHEM_CONFORMER_ID>
06136B8800000001

> <PUBCHEM_MMFF94_ENERGY>
94.1028

> <PUBCHEM_FEATURE_SELFOVERLAP>
51.272

> <PUBCHEM_SHAPE_FINGERPRINT>
10863032 1 17131258074144824077
10948715 1 18131626755677216896
12138202 97 12749508589044604288
12423570 1 18113607989470597524
12725867 57 17688049525837769045
13898156 1 17684945986484903023
144361 1 17679832016159639876
14617773 55 17761777668679807038
14817 1 17914068747968598285
15001771 113 17686328076996445278
15775835 57 18272378610945985465
15881359 60 17687714195975911985
16945 1 18268996568891929028
20511035 2 18187943784375337969
21922407 69 17684370946204025901
22112679 90 17548436137692796671
23419403 2 17325763678421819357
2748010 2 17543041525935998118
430814 3 16593974231320551533
5084963 1 17686607348812980734
68419 9 17757289432039567837
6992083 37 18262509407422858044

> <PUBCHEM_SHAPE_MULTIPOLES>
314.64
3.32
2.74
1.4
0.5
1.39
-0.18
-1.44
1.47
0.73
-0.47
0.1
-0.33
-0.57

> <PUBCHEM_SHAPE_SELFOVERLAP>
688.416

> <PUBCHEM_SHAPE_VOLUME>
171.4

> <PUBCHEM_COORDINATE_TYPE>
2
5
10

$$$$
