10807517
  -OEChem-09122014083D

 50 51  0     1  0  0  0  0  0999 V2000
    1.9462   -0.8146    0.0733 O   0  0  0  0  0  0  0  0  0  0  0  0
   -0.0380    0.4061   -0.0560 O   0  0  0  0  0  0  0  0  0  0  0  0
   -4.5059    1.4480    1.4122 O   0  0  0  0  0  0  0  0  0  0  0  0
    4.1146    2.5576    0.9640 O   0  0  0  0  0  0  0  0  0  0  0  0
    1.4693    2.7872   -0.3130 O   0  0  0  0  0  0  0  0  0  0  0  0
    5.4731    0.1728    0.0564 O   0  0  0  0  0  0  0  0  0  0  0  0
   -0.3751   -1.5302   -1.2793 O   0  0  0  0  0  0  0  0  0  0  0  0
    3.0623   -3.2595   -0.5034 O   0  0  0  0  0  0  0  0  0  0  0  0
   -3.0690    0.3570   -1.0686 C   0  0  0  0  0  0  0  0  0  0  0  0
   -4.5675    0.2063   -0.6799 C   0  0  0  0  0  0  0  0  0  0  0  0
   -2.1601   -0.4614   -0.1432 C   0  0  0  0  0  0  0  0  0  0  0  0
   -4.8201    0.1920    0.8216 C   0  0  1  0  0  0  0  0  0  0  0  0
   -4.0034   -0.9011    1.5022 C   0  0  0  0  0  0  0  0  0  0  0  0
   -2.5725   -1.0353    1.0103 C   0  0  0  0  0  0  0  0  0  0  0  0
    3.5216    1.5868    0.1001 C   0  0  2  0  0  0  0  0  0  0  0  0
    2.0037    1.6043    0.2808 C   0  0  2  0  0  0  0  0  0  0  0  0
    4.1053    0.2190    0.4545 C   0  0  1  0  0  0  0  0  0  0  0  0
    1.3500    0.3953   -0.3884 C   0  0  1  0  0  0  0  0  0  0  0  0
    3.3350   -0.8996   -0.2510 C   0  0  1  0  0  0  0  0  0  0  0  0
   -2.9563   -0.1215   -2.5367 C   0  0  0  0  0  0  0  0  0  0  0  0
   -2.6528    1.8432   -1.0154 C   0  0  0  0  0  0  0  0  0  0  0  0
   -0.7555   -0.6166   -0.5758 C   0  0  0  0  0  0  0  0  0  0  0  0
   -1.7289   -1.8563    1.9573 C   0  0  0  0  0  0  0  0  0  0  0  0
    3.8239   -2.2794    0.1781 C   0  0  0  0  0  0  0  0  0  0  0  0
   -4.9608   -0.7336   -1.0922 H   0  0  0  0  0  0  0  0  0  0  0  0
   -5.1497    1.0151   -1.1399 H   0  0  0  0  0  0  0  0  0  0  0  0
   -5.8867    0.0174    1.0046 H   0  0  0  0  0  0  0  0  0  0  0  0
   -4.4971   -1.8683    1.3413 H   0  0  0  0  0  0  0  0  0  0  0  0
   -3.9934   -0.7163    2.5839 H   0  0  0  0  0  0  0  0  0  0  0  0
    3.7877    1.8783   -0.9235 H   0  0  0  0  0  0  0  0  0  0  0  0
    1.7542    1.6401    1.3487 H   0  0  0  0  0  0  0  0  0  0  0  0
    4.0755    0.0809    1.5423 H   0  0  0  0  0  0  0  0  0  0  0  0
    1.4380    0.4696   -1.4813 H   0  0  0  0  0  0  0  0  0  0  0  0
    3.4427   -0.8255   -1.3418 H   0  0  0  0  0  0  0  0  0  0  0  0
   -3.6688    0.4102   -3.1784 H   0  0  0  0  0  0  0  0  0  0  0  0
   -1.9572    0.0580   -2.9498 H   0  0  0  0  0  0  0  0  0  0  0  0
   -3.1639   -1.1945   -2.6233 H   0  0  0  0  0  0  0  0  0  0  0  0
   -1.6768    2.0039   -1.4883 H   0  0  0  0  0  0  0  0  0  0  0  0
   -3.3714    2.4751   -1.5497 H   0  0  0  0  0  0  0  0  0  0  0  0
   -2.5769    2.2157    0.0111 H   0  0  0  0  0  0  0  0  0  0  0  0
    3.6860   -2.4372    1.2529 H   0  0  0  0  0  0  0  0  0  0  0  0
    4.8788   -2.4302   -0.0681 H   0  0  0  0  0  0  0  0  0  0  0  0
   -2.1688   -2.8504    2.0893 H   0  0  0  0  0  0  0  0  0  0  0  0
   -1.6713   -1.3668    2.9352 H   0  0  0  0  0  0  0  0  0  0  0  0
   -0.7049   -1.9977    1.6006 H   0  0  0  0  0  0  0  0  0  0  0  0
   -4.7370    1.3983    2.3554 H   0  0  0  0  0  0  0  0  0  0  0  0
    5.0776    2.5128    0.8345 H   0  0  0  0  0  0  0  0  0  0  0  0
    0.5045    2.7627   -0.1929 H   0  0  0  0  0  0  0  0  0  0  0  0
    5.5090    0.2881   -0.9085 H   0  0  0  0  0  0  0  0  0  0  0  0
    2.1271   -3.1132   -0.2803 H   0  0  0  0  0  0  0  0  0  0  0  0
  1 18  1  0  0  0  0
  1 19  1  0  0  0  0
  2 18  1  0  0  0  0
  2 22  1  0  0  0  0
  3 12  1  0  0  0  0
  3 46  1  0  0  0  0
  4 15  1  0  0  0  0
  4 47  1  0  0  0  0
  5 16  1  0  0  0  0
  5 48  1  0  0  0  0
  6 17  1  0  0  0  0
  6 49  1  0  0  0  0
  7 22  2  0  0  0  0
  8 24  1  0  0  0  0
  8 50  1  0  0  0  0
  9 10  1  0  0  0  0
  9 11  1  0  0  0  0
  9 20  1  0  0  0  0
  9 21  1  0  0  0  0
 10 12  1  0  0  0  0
 10 25  1  0  0  0  0
 10 26  1  0  0  0  0
 11 14  2  0  0  0  0
 11 22  1  0  0  0  0
 12 13  1  0  0  0  0
 12 27  1  0  0  0  0
 13 14  1  0  0  0  0
 13 28  1  0  0  0  0
 13 29  1  0  0  0  0
 14 23  1  0  0  0  0
 15 16  1  0  0  0  0
 15 17  1  0  0  0  0
 15 30  1  0  0  0  0
 16 18  1  0  0  0  0
 16 31  1  0  0  0  0
 17 19  1  0  0  0  0
 17 32  1  0  0  0  0
 18 33  1  0  0  0  0
 19 24  1  0  0  0  0
 19 34  1  0  0  0  0
 20 35  1  0  0  0  0
 20 36  1  0  0  0  0
 20 37  1  0  0  0  0
 21 38  1  0  0  0  0
 21 39  1  0  0  0  0
 21 40  1  0  0  0  0
 23 43  1  0  0  0  0
 23 44  1  0  0  0  0
 23 45  1  0  0  0  0
 24 41  1  0  0  0  0
 24 42  1  0  0  0  0
M  END
> <PUBCHEM_COMPOUND_CID>
10807517

> <PUBCHEM_CONFORMER_RMSD>
0.8

> <PUBCHEM_CONFORMER_DIVERSEORDER>
1
12
53
20
33
54
30
25
6
55
34
62
32
46
40
22
23
58
8
19
14
17
27
24
43
56
49
16
61
10
29
44
38
15
50
39
59
37
45
21
13
9
36
7
52
60
35
42
48
5
47
31
4
57
11
41
28
18
26
51
3
2

> <PUBCHEM_MMFF94_PARTIAL_CHARGES>
26
1 -0.56
11 -0.12
12 0.28
13 0.14
14 -0.28
15 0.28
16 0.28
17 0.28
18 0.56
19 0.28
2 -0.43
22 0.71
23 0.14
24 0.28
3 -0.68
4 -0.68
46 0.4
47 0.4
48 0.4
49 0.4
5 -0.68
50 0.4
6 -0.68
7 -0.57
8 -0.68
9 0.14

> <PUBCHEM_EFFECTIVE_ROTOR_COUNT>
6

> <PUBCHEM_PHARMACOPHORE_FEATURES>
15
1 1 acceptor
1 3 acceptor
1 3 donor
1 4 acceptor
1 4 donor
1 5 acceptor
1 5 donor
1 6 acceptor
1 6 donor
1 7 acceptor
1 8 acceptor
1 8 donor
3 9 20 21 hydrophobe
6 1 15 16 17 18 19 rings
6 9 10 11 12 13 14 rings

> <PUBCHEM_HEAVY_ATOM_COUNT>
24

> <PUBCHEM_ATOM_DEF_STEREO_COUNT>
6

> <PUBCHEM_ATOM_UDEF_STEREO_COUNT>
0

> <PUBCHEM_BOND_DEF_STEREO_COUNT>
0

> <PUBCHEM_BOND_UDEF_STEREO_COUNT>
0

> <PUBCHEM_ISOTOPIC_ATOM_COUNT>
0

> <PUBCHEM_COMPONENT_COUNT>
1

> <PUBCHEM_CACTVS_TAUTO_COUNT>
1

> <PUBCHEM_CONFORMER_ID>
00A4E8DD00000001

> <PUBCHEM_MMFF94_ENERGY>
61.3751

> <PUBCHEM_FEATURE_SELFOVERLAP>
76.144

> <PUBCHEM_SHAPE_FINGERPRINT>
10366900 7 18114747151920062386
11089746 13 17561361812063813208
11370993 144 18335430023826039817
11552529 35 18196942282343439723
11640471 11 17203338813909443627
12107183 9 17768539291676226691
12236239 1 17346878953172211502
12403259 415 17895192156586566109
12553582 1 18341892931921433886
12596602 18 16702008829656912434
12633257 1 18040725800493377817
128620 24 10881397651469951864
13402501 40 18186242818396936650
13533116 47 18411142411599969611
13583140 156 18408321116107557463
13675066 3 18186800279207690511
14251757 17 18187080611759933074
14341114 176 17894634789758781068
14386348 63 18113902658455057114
14790565 3 17904210578708019732
14866123 147 17111847068477958562
17349148 13 16702297944900407975
17818456 19 17058659451698326121
1813 80 17701554900445679246
19049666 15 18187643570271815378
20511986 3 17274527785240027024
20645477 56 17894909641879733319
20645477 70 18412257312195969366
21033648 29 17749094578979206781
21065199 12 18334862748576800867
21065201 7 16950559956664610667
23184049 59 18272090478548296446
23402539 116 14333406748527259848
23557571 272 17458341931400069340
23559900 14 17967538947599384142
2838139 119 18055915395329827617
474 4 17989490718675237303
5104073 3 18409447011513432346
602551 16 16660926681222489410
6049 1 18040154024102296069
633830 44 17989212533527327111
9709674 26 18260548956515646291

> <PUBCHEM_SHAPE_MULTIPOLES>
446.95
10.7
2.55
1.55
2.88
0.2
0.29
-0.88
-1.96
2.7
-0.29
-2.04
0.24
1.5

> <PUBCHEM_SHAPE_SELFOVERLAP>
922.478

> <PUBCHEM_SHAPE_VOLUME>
252.8

> <PUBCHEM_COORDINATE_TYPE>
2
5
10

$$$$
