101936009
  -OEChem-09122012403D

 31 33  0     1  0  0  0  0  0999 V2000
    2.8370    1.5249   -0.1835 O   0  0  0  0  0  0  0  0  0  0  0  0
    0.4193    2.1666    0.1660 O   0  0  0  0  0  0  0  0  0  0  0  0
    2.0426   -0.9707   -1.6143 O   0  0  0  0  0  0  0  0  0  0  0  0
   -1.6913    1.9139    1.1437 O   0  0  0  0  0  0  0  0  0  0  0  0
   -3.1891    0.0902   -0.9204 O   0  0  0  0  0  0  0  0  0  0  0  0
   -2.6386   -1.3674    0.7852 O   0  0  0  0  0  0  0  0  0  0  0  0
    1.3340    0.0570    0.5259 C   0  0  1  0  0  0  0  0  0  0  0  0
    0.0251   -0.6353    0.7361 C   0  0  1  0  0  0  0  0  0  0  0  0
    2.3116   -0.8258   -0.2119 C   0  0  2  0  0  0  0  0  0  0  0  0
    1.4097    1.2812   -0.3172 C   0  0  2  0  0  0  0  0  0  0  0  0
   -0.9556    0.0211   -0.2312 C   0  0  2  0  0  0  0  0  0  0  0  0
    3.4746    0.1630   -0.0779 C   0  0  0  0  0  0  0  0  0  0  0  0
    0.5593   -2.0490    0.7131 C   0  0  0  0  0  0  0  0  0  0  0  0
    1.8712   -2.1134    0.3858 C   0  0  0  0  0  0  0  0  0  0  0  0
   -0.9140    1.5906   -0.0113 C   0  0  2  0  0  0  0  0  0  0  0  0
   -2.3411   -0.5155   -0.0412 C   0  0  0  0  0  0  0  0  0  0  0  0
   -4.5548   -0.3313   -0.8471 C   0  0  0  0  0  0  0  0  0  0  0  0
    1.7069    0.2935    1.5428 H   0  0  0  0  0  0  0  0  0  0  0  0
   -0.3284   -0.4505    1.7612 H   0  0  0  0  0  0  0  0  0  0  0  0
    1.2234    1.1572   -1.3907 H   0  0  0  0  0  0  0  0  0  0  0  0
   -0.6525   -0.2182   -1.2592 H   0  0  0  0  0  0  0  0  0  0  0  0
    3.9779    0.1170    0.8933 H   0  0  0  0  0  0  0  0  0  0  0  0
    4.2091    0.0918   -0.8851 H   0  0  0  0  0  0  0  0  0  0  0  0
   -0.0148   -2.8994    1.0536 H   0  0  0  0  0  0  0  0  0  0  0  0
    2.4450   -3.0283    0.3612 H   0  0  0  0  0  0  0  0  0  0  0  0
   -1.3715    2.0852   -0.8763 H   0  0  0  0  0  0  0  0  0  0  0  0
    2.8014   -1.4342   -2.0091 H   0  0  0  0  0  0  0  0  0  0  0  0
   -2.0504    2.8067    1.0049 H   0  0  0  0  0  0  0  0  0  0  0  0
   -5.1228    0.2244   -1.5979 H   0  0  0  0  0  0  0  0  0  0  0  0
   -4.9670   -0.1079    0.1416 H   0  0  0  0  0  0  0  0  0  0  0  0
   -4.6337   -1.4002   -1.0668 H   0  0  0  0  0  0  0  0  0  0  0  0
  1 10  1  0  0  0  0
  1 12  1  0  0  0  0
  2 10  1  0  0  0  0
  2 15  1  0  0  0  0
  3  9  1  0  0  0  0
  3 27  1  0  0  0  0
  4 15  1  0  0  0  0
  4 28  1  0  0  0  0
  5 16  1  0  0  0  0
  5 17  1  0  0  0  0
  6 16  2  0  0  0  0
  7  8  1  0  0  0  0
  7  9  1  0  0  0  0
  7 10  1  0  0  0  0
  7 18  1  0  0  0  0
  8 11  1  0  0  0  0
  8 13  1  0  0  0  0
  8 19  1  0  0  0  0
  9 12  1  0  0  0  0
  9 14  1  0  0  0  0
 10 20  1  0  0  0  0
 11 15  1  0  0  0  0
 11 16  1  0  0  0  0
 11 21  1  0  0  0  0
 12 22  1  0  0  0  0
 12 23  1  0  0  0  0
 13 14  2  0  0  0  0
 13 24  1  0  0  0  0
 14 25  1  0  0  0  0
 15 26  1  0  0  0  0
 17 29  1  0  0  0  0
 17 30  1  0  0  0  0
 17 31  1  0  0  0  0
M  END
> <PUBCHEM_COMPOUND_CID>
101936009

> <PUBCHEM_CONFORMER_RMSD>
0.6

> <PUBCHEM_CONFORMER_DIVERSEORDER>
1
2
3

> <PUBCHEM_MMFF94_PARTIAL_CHARGES>
20
1 -0.56
10 0.56
11 0.06
12 0.28
13 -0.29
14 -0.29
15 0.56
16 0.66
17 0.28
2 -0.56
24 0.15
25 0.15
27 0.4
28 0.4
3 -0.68
4 -0.68
5 -0.43
6 -0.57
8 0.14
9 0.42

> <PUBCHEM_EFFECTIVE_ROTOR_COUNT>
3

> <PUBCHEM_PHARMACOPHORE_FEATURES>
10
1 1 acceptor
1 2 acceptor
1 3 acceptor
1 3 donor
1 4 acceptor
1 4 donor
1 6 acceptor
5 1 7 9 10 12 rings
5 7 8 9 13 14 rings
6 2 7 8 10 11 15 rings

> <PUBCHEM_HEAVY_ATOM_COUNT>
17

> <PUBCHEM_ATOM_DEF_STEREO_COUNT>
6

> <PUBCHEM_ATOM_UDEF_STEREO_COUNT>
0

> <PUBCHEM_BOND_DEF_STEREO_COUNT>
0

> <PUBCHEM_BOND_UDEF_STEREO_COUNT>
0

> <PUBCHEM_ISOTOPIC_ATOM_COUNT>
0

> <PUBCHEM_COMPONENT_COUNT>
1

> <PUBCHEM_CACTVS_TAUTO_COUNT>
2

> <PUBCHEM_CONFORMER_ID>
06136B8900000001

> <PUBCHEM_MMFF94_ENERGY>
93.7321

> <PUBCHEM_FEATURE_SELFOVERLAP>
51.284

> <PUBCHEM_SHAPE_FINGERPRINT>
10967382 1 18408602578003921042
11206711 2 18263372407933564716
11471102 20 18336259119817445077
12202030 40 16557342618356281670
12423570 1 17917994988327813102
12654215 9 18260820518670433740
13140716 1 18050569843854894506
13299463 15 18259978254235608189
14576447 43 18127955598580502519
14614273 12 18114174181792057077
14617773 55 18129666296538234105
15001771 113 18121214277429910098
15757776 16 18411692192835241830
15775835 57 17603580846139910438
15852999 172 17385725802714461914
16945 1 18335992994969558290
18186145 218 18261401056536089687
200 152 18271800224721593237
20201158 50 18334290981024053931
20645477 70 18341607118848211535
21501502 16 18268149747370065432
21637258 2 15913330156896945510
22802520 49 18055374443296316062
2334 1 18337957792220481240
23402539 116 18340195397415354934
23402655 69 18337095809965145029
23557571 272 17702935938204267954
23559900 14 18339086016575452284
25 1 18187639219717883847
2748010 2 17833279988023735464
276578 36 8069743044008099735
2871803 45 18410290298271910045
3060560 45 18337099146495818655
3312278 4 18408886265263303043
34934 24 18200583804460762805
353137 74 18410293613986681952
4072396 5 18189590844298712240
528886 8 18337385041019906154
7364860 26 18338510846712067090
7832392 63 18053672382005918920
8030462 33 18335710381605091422

> <PUBCHEM_SHAPE_MULTIPOLES>
314.64
5.56
2.15
0.99
4.57
0.17
0.13
-0.55
1.6
-0.65
-0.46
0.14
-0.1
-0.15

> <PUBCHEM_SHAPE_SELFOVERLAP>
687.381

> <PUBCHEM_SHAPE_VOLUME>
171.5

> <PUBCHEM_COORDINATE_TYPE>
2
5
10

$$$$
