21631030
  -OEChem-09122011413D

 49 50  0     1  0  0  0  0  0999 V2000
    1.9684   -0.8407   -0.0487 O   0  0  0  0  0  0  0  0  0  0  0  0
    0.0266    0.4409    0.1275 O   0  0  0  0  0  0  0  0  0  0  0  0
    4.3138    2.3152    1.1371 O   0  0  0  0  0  0  0  0  0  0  0  0
    1.6011    2.7918    0.0909 O   0  0  0  0  0  0  0  0  0  0  0  0
    5.5207    0.0413   -0.1778 O   0  0  0  0  0  0  0  0  0  0  0  0
    2.9530   -3.2129   -1.0279 O   0  0  0  0  0  0  0  0  0  0  0  0
   -5.2892    1.7481   -0.4743 O   0  0  0  0  0  0  0  0  0  0  0  0
   -2.6803   -1.3551    0.5447 C   0  0  0  0  0  0  0  0  0  0  0  0
   -2.2461   -0.1419   -0.2986 C   0  0  0  0  0  0  0  0  0  0  0  0
   -3.9314   -1.0082    1.3822 C   0  0  0  0  0  0  0  0  0  0  0  0
    3.6301    1.4895    0.1932 C   0  0  2  0  0  0  0  0  0  0  0  0
    2.1289    1.5241    0.4802 C   0  0  2  0  0  0  0  0  0  0  0  0
    4.1846    0.0702    0.3174 C   0  0  1  0  0  0  0  0  0  0  0  0
    1.3885    0.4374   -0.2993 C   0  0  1  0  0  0  0  0  0  0  0  0
    3.3289   -0.9188   -0.4776 C   0  0  1  0  0  0  0  0  0  0  0  0
   -0.8219   -0.1804   -0.8124 C   0  0  0  0  0  0  0  0  0  0  0  0
   -5.0290   -0.3797    0.5496 C   0  0  0  0  0  0  0  0  0  0  0  0
   -3.0733    0.8893   -0.5901 C   0  0  0  0  0  0  0  0  0  0  0  0
   -1.5850   -1.7813    1.5488 C   0  0  0  0  0  0  0  0  0  0  0  0
   -2.9824   -2.5485   -0.3851 C   0  0  0  0  0  0  0  0  0  0  0  0
   -4.5164    0.8370   -0.1748 C   0  0  0  0  0  0  0  0  0  0  0  0
    3.7932   -2.3576   -0.2747 C   0  0  0  0  0  0  0  0  0  0  0  0
   -2.6826    2.1405   -1.3302 C   0  0  0  0  0  0  0  0  0  0  0  0
   -3.6546   -0.3060    2.1817 H   0  0  0  0  0  0  0  0  0  0  0  0
   -4.3228   -1.9038    1.8811 H   0  0  0  0  0  0  0  0  0  0  0  0
    3.8497    1.9098   -0.7953 H   0  0  0  0  0  0  0  0  0  0  0  0
    1.9408    1.4200    1.5554 H   0  0  0  0  0  0  0  0  0  0  0  0
    4.2214   -0.2198    1.3746 H   0  0  0  0  0  0  0  0  0  0  0  0
    1.4295    0.6596   -1.3749 H   0  0  0  0  0  0  0  0  0  0  0  0
    3.3682   -0.6987   -1.5532 H   0  0  0  0  0  0  0  0  0  0  0  0
   -0.7480    0.3264   -1.7821 H   0  0  0  0  0  0  0  0  0  0  0  0
   -0.5010   -1.2114   -0.9987 H   0  0  0  0  0  0  0  0  0  0  0  0
   -5.4387   -1.0794   -0.1853 H   0  0  0  0  0  0  0  0  0  0  0  0
   -5.8448   -0.0688    1.2121 H   0  0  0  0  0  0  0  0  0  0  0  0
   -1.9502   -2.5778    2.2085 H   0  0  0  0  0  0  0  0  0  0  0  0
   -0.6908   -2.1726    1.0520 H   0  0  0  0  0  0  0  0  0  0  0  0
   -1.2780   -0.9433    2.1852 H   0  0  0  0  0  0  0  0  0  0  0  0
   -3.3906   -3.3941    0.1804 H   0  0  0  0  0  0  0  0  0  0  0  0
   -3.7072   -2.2880   -1.1641 H   0  0  0  0  0  0  0  0  0  0  0  0
   -2.0788   -2.9052   -0.8921 H   0  0  0  0  0  0  0  0  0  0  0  0
    4.8260   -2.4973   -0.6078 H   0  0  0  0  0  0  0  0  0  0  0  0
    3.7091   -2.6498    0.7773 H   0  0  0  0  0  0  0  0  0  0  0  0
   -3.1008    2.1273   -2.3418 H   0  0  0  0  0  0  0  0  0  0  0  0
   -1.6010    2.2771   -1.4086 H   0  0  0  0  0  0  0  0  0  0  0  0
   -3.0610    3.0279   -0.8105 H   0  0  0  0  0  0  0  0  0  0  0  0
    4.1235    1.9769    2.0287 H   0  0  0  0  0  0  0  0  0  0  0  0
    1.7544    2.9024   -0.8630 H   0  0  0  0  0  0  0  0  0  0  0  0
    5.4975    0.2839   -1.1191 H   0  0  0  0  0  0  0  0  0  0  0  0
    3.2631   -4.1227   -0.8805 H   0  0  0  0  0  0  0  0  0  0  0  0
  1 14  1  0  0  0  0
  1 15  1  0  0  0  0
  2 14  1  0  0  0  0
  2 16  1  0  0  0  0
  3 11  1  0  0  0  0
  3 46  1  0  0  0  0
  4 12  1  0  0  0  0
  4 47  1  0  0  0  0
  5 13  1  0  0  0  0
  5 48  1  0  0  0  0
  6 22  1  0  0  0  0
  6 49  1  0  0  0  0
  7 21  2  0  0  0  0
  8  9  1  0  0  0  0
  8 10  1  0  0  0  0
  8 19  1  0  0  0  0
  8 20  1  0  0  0  0
  9 16  1  0  0  0  0
  9 18  2  0  0  0  0
 10 17  1  0  0  0  0
 10 24  1  0  0  0  0
 10 25  1  0  0  0  0
 11 12  1  0  0  0  0
 11 13  1  0  0  0  0
 11 26  1  0  0  0  0
 12 14  1  0  0  0  0
 12 27  1  0  0  0  0
 13 15  1  0  0  0  0
 13 28  1  0  0  0  0
 14 29  1  0  0  0  0
 15 22  1  0  0  0  0
 15 30  1  0  0  0  0
 16 31  1  0  0  0  0
 16 32  1  0  0  0  0
 17 21  1  0  0  0  0
 17 33  1  0  0  0  0
 17 34  1  0  0  0  0
 18 21  1  0  0  0  0
 18 23  1  0  0  0  0
 19 35  1  0  0  0  0
 19 36  1  0  0  0  0
 19 37  1  0  0  0  0
 20 38  1  0  0  0  0
 20 39  1  0  0  0  0
 20 40  1  0  0  0  0
 22 41  1  0  0  0  0
 22 42  1  0  0  0  0
 23 43  1  0  0  0  0
 23 44  1  0  0  0  0
 23 45  1  0  0  0  0
M  END
> <PUBCHEM_COMPOUND_CID>
21631030

> <PUBCHEM_CONFORMER_RMSD>
0.8

> <PUBCHEM_CONFORMER_DIVERSEORDER>
1
86
79
91
84
56
48
42
89
25
26
63
44
51
73
70
17
20
61
2
58
60
49
72
9
67
15
40
43
41
59
81
27
39
11
32
52
46
90
75
30
36
8
87
35
14
74
53
6
21
78
50
66
80
88
65
82
3
54
5
68
64
19
45
71
4
69
12
57
29
10
28
22
37
55
38
7
85
24
76
33
23
13
18
31
34
47
16
83
62
77

> <PUBCHEM_MMFF94_PARTIAL_CHARGES>
24
1 -0.56
11 0.28
12 0.28
13 0.28
14 0.56
15 0.28
16 0.42
17 0.06
18 -0.12
2 -0.56
21 0.49
22 0.28
23 0.14
3 -0.68
4 -0.68
46 0.4
47 0.4
48 0.4
49 0.4
5 -0.68
6 -0.68
7 -0.57
8 0.14
9 -0.28

> <PUBCHEM_EFFECTIVE_ROTOR_COUNT>
5.8

> <PUBCHEM_PHARMACOPHORE_FEATURES>
14
1 1 acceptor
1 2 acceptor
1 3 acceptor
1 3 donor
1 4 acceptor
1 4 donor
1 5 acceptor
1 5 donor
1 6 acceptor
1 6 donor
1 7 acceptor
3 8 19 20 hydrophobe
6 1 11 12 13 14 15 rings
6 8 9 10 17 18 21 rings

> <PUBCHEM_HEAVY_ATOM_COUNT>
23

> <PUBCHEM_ATOM_DEF_STEREO_COUNT>
5

> <PUBCHEM_ATOM_UDEF_STEREO_COUNT>
0

> <PUBCHEM_BOND_DEF_STEREO_COUNT>
0

> <PUBCHEM_BOND_UDEF_STEREO_COUNT>
0

> <PUBCHEM_ISOTOPIC_ATOM_COUNT>
0

> <PUBCHEM_COMPONENT_COUNT>
1

> <PUBCHEM_CACTVS_TAUTO_COUNT>
2

> <PUBCHEM_CONFORMER_ID>
014A103600000001

> <PUBCHEM_MMFF94_ENERGY>
56.5882

> <PUBCHEM_FEATURE_SELFOVERLAP>
71.11

> <PUBCHEM_SHAPE_FINGERPRINT>
10366900 7 18118968228619593202
1100329 8 16750710240867014897
11089746 13 16845852403958758544
11370993 144 18340494370067769409
11405975 8 18409163311933494424
11552529 35 17844530109653782287
11595378 159 16878213191132101965
12107183 9 17769107752004259987
12236239 1 16559031588612513164
12507560 40 18410012160790834213
12596602 18 16558744671965239346
128620 24 11025795405317604464
13402501 40 18335422352518622166
13533116 47 18130790036229500883
13544592 145 18261959531123305439
13583140 156 17774153655734950227
13675066 3 18261118482385523755
14251757 17 18337107852299166248
14341114 176 18410015467699725120
14386348 63 18408889533569904338
14866123 147 17260474669332516562
15375358 24 18410572902972972242
17349148 13 15554446297283916215
17804303 29 18260274014611122999
17844677 252 18412832395131301753
1813 80 16660363701151660117
20645477 56 18334574633723127197
20645477 70 18059857225528309710
20681651 13 17703228528667551939
20832881 197 18118970191414944666
21033650 10 16807305596600403228
21065198 57 18410856577062453285
21065199 12 18409731798178868411
21279426 13 18192150387209356093
2215653 11 18339078190358743967
23557571 272 17967813834117264564
23559900 14 18410291402368759116
3004659 81 18041566811278307406
3421961 26 18341895139497486090
3545911 37 18411702096977241093
4214541 1 18409166623501102297
495365 180 18131056148208245282
5104073 3 18408041788767164497
5924683 9 18198337558356783087
59755656 215 18410577262833996966
9709674 26 18335143136895656603
9995097 60 18411980269377198352

> <PUBCHEM_SHAPE_MULTIPOLES>
432.24
11.55
2.95
1.09
1.65
0.55
-0.15
-1.02
-0.72
1.16
0.35
-0.42
0.15
2.18

> <PUBCHEM_SHAPE_SELFOVERLAP>
886.486

> <PUBCHEM_SHAPE_VOLUME>
246.3

> <PUBCHEM_COORDINATE_TYPE>
2
5
10

$$$$
