185774
  -OEChem-09122014353D

 52 54  0     1  0  0  0  0  0999 V2000
    0.5682   -0.2105   -0.7889 O   0  0  0  0  0  0  0  0  0  0  0  0
   -0.4317    0.2507    1.2922 O   0  0  0  0  0  0  0  0  0  0  0  0
   -2.3211    2.3667    1.0232 O   0  0  0  0  0  0  0  0  0  0  0  0
    2.5161    0.8169   -0.0184 O   0  0  0  0  0  0  0  0  0  0  0  0
   -2.9767    4.4182   -0.7649 O   0  0  0  0  0  0  0  0  0  0  0  0
    1.9615   -2.6669   -0.9700 O   0  0  0  0  0  0  0  0  0  0  0  0
    4.8468   -2.2648   -1.4104 O   0  0  0  0  0  0  0  0  0  0  0  0
    5.9199   -0.4163    0.5357 O   0  0  0  0  0  0  0  0  0  0  0  0
   -3.5913   -2.7728   -0.2735 O   0  0  0  0  0  0  0  0  0  0  0  0
    3.4407    2.8479    1.5866 O   0  0  0  0  0  0  0  0  0  0  0  0
   -3.5101   -2.4735    2.0206 O   0  0  0  0  0  0  0  0  0  0  0  0
   -1.5518    0.9234   -0.8302 C   0  0  2  0  0  0  0  0  0  0  0  0
   -2.4205    2.1277   -0.3754 C   0  0  1  0  0  0  0  0  0  0  0  0
   -2.4834   -0.3132   -0.7439 C   0  0  2  0  0  0  0  0  0  0  0  0
   -0.2440    0.7088   -0.0533 C   0  0  2  0  0  0  0  0  0  0  0  0
   -3.8042    1.6440   -0.6888 C   0  0  0  0  0  0  0  0  0  0  0  0
   -3.8366    0.3223   -0.8887 C   0  0  0  0  0  0  0  0  0  0  0  0
   -2.3158   -1.0519    0.5473 C   0  0  0  0  0  0  0  0  0  0  0  0
    1.8227   -0.4226   -0.1423 C   0  0  2  0  0  0  0  0  0  0  0  0
   -2.0532    3.4064   -1.1228 C   0  0  0  0  0  0  0  0  0  0  0  0
    2.6294   -1.4056   -0.9907 C   0  0  1  0  0  0  0  0  0  0  0  0
    4.0487   -1.5739   -0.4482 C   0  0  2  0  0  0  0  0  0  0  0  0
    4.7020   -0.2184   -0.1776 C   0  0  1  0  0  0  0  0  0  0  0  0
    3.7734    0.6774    0.6456 C   0  0  1  0  0  0  0  0  0  0  0  0
   -1.3748   -0.7324    1.4432 C   0  0  0  0  0  0  0  0  0  0  0  0
   -3.2012   -2.1706    0.8786 C   0  0  0  0  0  0  0  0  0  0  0  0
    4.3544    2.0759    0.8289 C   0  0  0  0  0  0  0  0  0  0  0  0
   -4.4676   -3.8931   -0.1141 C   0  0  0  0  0  0  0  0  0  0  0  0
   -1.3021    1.0546   -1.8953 H   0  0  0  0  0  0  0  0  0  0  0  0
   -2.2762   -0.9770   -1.5918 H   0  0  0  0  0  0  0  0  0  0  0  0
    0.2774    1.6717   -0.0024 H   0  0  0  0  0  0  0  0  0  0  0  0
   -4.6831    2.2732   -0.7060 H   0  0  0  0  0  0  0  0  0  0  0  0
   -4.7417   -0.2310   -1.0978 H   0  0  0  0  0  0  0  0  0  0  0  0
    1.6484   -0.8554    0.8513 H   0  0  0  0  0  0  0  0  0  0  0  0
   -2.0946    3.2701   -2.2089 H   0  0  0  0  0  0  0  0  0  0  0  0
   -1.0513    3.7501   -0.8447 H   0  0  0  0  0  0  0  0  0  0  0  0
    2.6588   -1.0796   -2.0372 H   0  0  0  0  0  0  0  0  0  0  0  0
    4.0452   -2.1961    0.4552 H   0  0  0  0  0  0  0  0  0  0  0  0
    4.9547    0.2611   -1.1312 H   0  0  0  0  0  0  0  0  0  0  0  0
    3.5953    0.2511    1.6423 H   0  0  0  0  0  0  0  0  0  0  0  0
   -1.2551   -1.2043    2.4094 H   0  0  0  0  0  0  0  0  0  0  0  0
   -1.4329    2.7139    1.2115 H   0  0  0  0  0  0  0  0  0  0  0  0
    4.4993    2.5790   -0.1329 H   0  0  0  0  0  0  0  0  0  0  0  0
    5.3094    2.0513    1.3615 H   0  0  0  0  0  0  0  0  0  0  0  0
   -2.7226    5.2229   -1.2480 H   0  0  0  0  0  0  0  0  0  0  0  0
    1.9251   -2.9742   -0.0481 H   0  0  0  0  0  0  0  0  0  0  0  0
    5.7436   -2.3435   -1.0423 H   0  0  0  0  0  0  0  0  0  0  0  0
    5.7049   -0.8348    1.3868 H   0  0  0  0  0  0  0  0  0  0  0  0
    2.5951    2.8585    1.1063 H   0  0  0  0  0  0  0  0  0  0  0  0
   -4.7031   -4.2844   -1.1073 H   0  0  0  0  0  0  0  0  0  0  0  0
   -5.3977   -3.5798    0.3698 H   0  0  0  0  0  0  0  0  0  0  0  0
   -3.9755   -4.6794    0.4662 H   0  0  0  0  0  0  0  0  0  0  0  0
  1 15  1  0  0  0  0
  1 19  1  0  0  0  0
  2 15  1  0  0  0  0
  2 25  1  0  0  0  0
  3 13  1  0  0  0  0
  3 42  1  0  0  0  0
  4 19  1  0  0  0  0
  4 24  1  0  0  0  0
  5 20  1  0  0  0  0
  5 45  1  0  0  0  0
  6 21  1  0  0  0  0
  6 46  1  0  0  0  0
  7 22  1  0  0  0  0
  7 47  1  0  0  0  0
  8 23  1  0  0  0  0
  8 48  1  0  0  0  0
  9 26  1  0  0  0  0
  9 28  1  0  0  0  0
 10 27  1  0  0  0  0
 10 49  1  0  0  0  0
 11 26  2  0  0  0  0
 12 13  1  0  0  0  0
 12 14  1  0  0  0  0
 12 15  1  0  0  0  0
 12 29  1  0  0  0  0
 13 16  1  0  0  0  0
 13 20  1  0  0  0  0
 14 17  1  0  0  0  0
 14 18  1  0  0  0  0
 14 30  1  0  0  0  0
 15 31  1  0  0  0  0
 16 17  2  0  0  0  0
 16 32  1  0  0  0  0
 17 33  1  0  0  0  0
 18 25  2  0  0  0  0
 18 26  1  0  0  0  0
 19 21  1  0  0  0  0
 19 34  1  0  0  0  0
 20 35  1  0  0  0  0
 20 36  1  0  0  0  0
 21 22  1  0  0  0  0
 21 37  1  0  0  0  0
 22 23  1  0  0  0  0
 22 38  1  0  0  0  0
 23 24  1  0  0  0  0
 23 39  1  0  0  0  0
 24 27  1  0  0  0  0
 24 40  1  0  0  0  0
 25 41  1  0  0  0  0
 27 43  1  0  0  0  0
 27 44  1  0  0  0  0
 28 50  1  0  0  0  0
 28 51  1  0  0  0  0
 28 52  1  0  0  0  0
M  END
> <PUBCHEM_COMPOUND_CID>
185774

> <PUBCHEM_CONFORMER_RMSD>
1

> <PUBCHEM_CONFORMER_DIVERSEORDER>
1
2
43
26
20
59
27
29
49
57
37
41
38
48
58
44
32
31
28
33
15
51
34
18
5
55
17
46
61
8
30
19
7
6
47
24
39
53
4
21
50
63
42
62
54
9
56
36
11
13
40
23
22
12
25
35
52
10
14
60
16
45
3

> <PUBCHEM_MMFF94_PARTIAL_CHARGES>
36
1 -0.56
10 -0.68
11 -0.57
13 0.42
14 0.28
15 0.56
16 -0.29
17 -0.29
18 -0.12
19 0.56
2 -0.36
20 0.28
21 0.28
22 0.28
23 0.28
24 0.28
25 -0.07
26 0.71
27 0.28
28 0.28
3 -0.68
32 0.15
33 0.15
4 -0.56
41 0.15
42 0.4
45 0.4
46 0.4
47 0.4
48 0.4
49 0.4
5 -0.68
6 -0.68
7 -0.68
8 -0.68
9 -0.43

> <PUBCHEM_EFFECTIVE_ROTOR_COUNT>
7.8

> <PUBCHEM_PHARMACOPHORE_FEATURES>
19
1 1 acceptor
1 10 acceptor
1 10 donor
1 11 acceptor
1 2 acceptor
1 3 acceptor
1 3 donor
1 4 acceptor
1 5 acceptor
1 5 donor
1 6 acceptor
1 6 donor
1 7 acceptor
1 7 donor
1 8 acceptor
1 8 donor
5 12 13 14 16 17 rings
6 2 12 14 15 18 25 rings
6 4 19 21 22 23 24 rings

> <PUBCHEM_HEAVY_ATOM_COUNT>
28

> <PUBCHEM_ATOM_DEF_STEREO_COUNT>
9

> <PUBCHEM_ATOM_UDEF_STEREO_COUNT>
0

> <PUBCHEM_BOND_DEF_STEREO_COUNT>
0

> <PUBCHEM_BOND_UDEF_STEREO_COUNT>
0

> <PUBCHEM_ISOTOPIC_ATOM_COUNT>
0

> <PUBCHEM_COMPONENT_COUNT>
1

> <PUBCHEM_CACTVS_TAUTO_COUNT>
1

> <PUBCHEM_CONFORMER_ID>
0002D5AE00000001

> <PUBCHEM_MMFF94_ENERGY>
80.9877

> <PUBCHEM_FEATURE_SELFOVERLAP>
96.745

> <PUBCHEM_SHAPE_FINGERPRINT>
10319926 262 18263344959562363576
10675989 125 17044012694381203740
11405975 8 18410292476215909594
12403259 226 18340767139008536648
12553582 1 17974592465316310607
12788726 201 17823154469384776131
13224815 77 18131636686005296606
13544653 18 18265338493849087379
13583140 156 18272368663959795166
13944108 23 16317236547783054028
14178342 30 18113904827387200246
14251764 38 18408319986927076756
15420108 30 14243913786644321112
15961568 22 18042402616056381916
17349148 13 16660641886273150930
17492 89 18411980291079381886
1813 80 18118698848898977403
200 152 17489580122018302822
20645477 70 17488177094174617990
20681677 76 18413670218949420194
21065198 57 18337670819880784566
21065201 7 18261109639206019426
221490 88 18343586235635994126
22393880 68 18337393734493259846
23557571 272 18188208800916077091
23559900 14 18410849945786059012
3380486 145 18266753539976495009
4015057 19 18129929079627439764
4073 2 18336547132188327146
463206 1 18046068434804438667
469060 322 17696166468223542823
508706 21 18336544907036487564
5104073 3 18413102870981111016
6004065 56 17833546074618837051
621550 34 18126564754767303056
6913067 236 18055056911979361426
7399639 24 18198333164415146992
9709674 26 18341329994293290558

> <PUBCHEM_SHAPE_MULTIPOLES>
511.66
10.77
4.37
1.35
11.07
1.27
0.35
-3.52
0.04
-5.14
-0.44
-0.09
-0.12
3.02

> <PUBCHEM_SHAPE_SELFOVERLAP>
1084.891

> <PUBCHEM_SHAPE_VOLUME>
280.5

> <PUBCHEM_COORDINATE_TYPE>
2
5
10

$$$$
