13786166
  -OEChem-09122014313D

 23 24  0     0  0  0  0  0  0999 V2000
    0.2141    2.4401    0.1368 O   0  0  0  0  0  0  0  0  0  0  0  0
    3.4626    0.1685   -0.4292 O   0  0  0  0  0  0  0  0  0  0  0  0
    2.5356   -1.6701    0.6289 O   0  0  0  0  0  0  0  0  0  0  0  0
   -4.7641   -0.6259   -0.1667 O   0  0  0  0  0  0  0  0  0  0  0  0
   -0.0839   -0.3158    0.0434 C   0  0  0  0  0  0  0  0  0  0  0  0
   -1.2543    0.5520    0.0182 C   0  0  0  0  0  0  0  0  0  0  0  0
   -2.4320   -0.2692   -0.0565 C   0  0  0  0  0  0  0  0  0  0  0  0
    1.2361    0.2449    0.1174 C   0  0  0  0  0  0  0  0  0  0  0  0
   -0.5505   -1.5750   -0.0138 C   0  0  0  0  0  0  0  0  0  0  0  0
   -2.0091   -1.5448   -0.0756 C   0  0  0  0  0  0  0  0  0  0  0  0
   -1.0578    1.8740    0.0652 C   0  0  0  0  0  0  0  0  0  0  0  0
    1.3192    1.5865    0.1603 C   0  0  0  0  0  0  0  0  0  0  0  0
    2.4624   -0.5465    0.1493 C   0  0  0  0  0  0  0  0  0  0  0  0
   -3.8166    0.1601   -0.1027 C   0  0  0  0  0  0  0  0  0  0  0  0
    4.7383   -0.4789   -0.4748 C   0  0  0  0  0  0  0  0  0  0  0  0
    0.0234   -2.4878   -0.0181 H   0  0  0  0  0  0  0  0  0  0  0  0
   -2.6189   -2.4331   -0.1278 H   0  0  0  0  0  0  0  0  0  0  0  0
   -1.8254    2.6330    0.0541 H   0  0  0  0  0  0  0  0  0  0  0  0
    2.2225    2.1773    0.2299 H   0  0  0  0  0  0  0  0  0  0  0  0
   -3.9845    1.2489   -0.0773 H   0  0  0  0  0  0  0  0  0  0  0  0
    4.6741   -1.4005   -1.0610 H   0  0  0  0  0  0  0  0  0  0  0  0
    5.0921   -0.6893    0.5389 H   0  0  0  0  0  0  0  0  0  0  0  0
    5.4461    0.1981   -0.9606 H   0  0  0  0  0  0  0  0  0  0  0  0
  1 11  1  0  0  0  0
  1 12  1  0  0  0  0
  2 13  1  0  0  0  0
  2 15  1  0  0  0  0
  3 13  2  0  0  0  0
  4 14  2  0  0  0  0
  5  6  1  0  0  0  0
  5  8  1  0  0  0  0
  5  9  2  0  0  0  0
  6  7  1  0  0  0  0
  6 11  2  0  0  0  0
  7 10  2  0  0  0  0
  7 14  1  0  0  0  0
  8 12  2  0  0  0  0
  8 13  1  0  0  0  0
  9 10  1  0  0  0  0
  9 16  1  0  0  0  0
 10 17  1  0  0  0  0
 11 18  1  0  0  0  0
 12 19  1  0  0  0  0
 14 20  1  0  0  0  0
 15 21  1  0  0  0  0
 15 22  1  0  0  0  0
 15 23  1  0  0  0  0
M  END
> <PUBCHEM_COMPOUND_CID>
13786166

> <PUBCHEM_CONFORMER_RMSD>
0.6

> <PUBCHEM_CONFORMER_DIVERSEORDER>
1
6
3
2
4
5

> <PUBCHEM_MMFF94_PARTIAL_CHARGES>
18
1 -0.15
10 -0.15
11 -0.07
12 -0.07
13 0.71
14 0.5
15 0.28
16 0.15
17 0.15
18 0.15
19 0.15
2 -0.43
20 0.06
3 -0.57
4 -0.57
7 0.01
8 0.01
9 -0.15

> <PUBCHEM_EFFECTIVE_ROTOR_COUNT>
3

> <PUBCHEM_PHARMACOPHORE_FEATURES>
5
1 1 acceptor
1 3 acceptor
1 4 acceptor
5 5 6 7 9 10 rings
6 1 5 6 8 11 12 rings

> <PUBCHEM_HEAVY_ATOM_COUNT>
15

> <PUBCHEM_ATOM_DEF_STEREO_COUNT>
0

> <PUBCHEM_ATOM_UDEF_STEREO_COUNT>
0

> <PUBCHEM_BOND_DEF_STEREO_COUNT>
0

> <PUBCHEM_BOND_UDEF_STEREO_COUNT>
0

> <PUBCHEM_ISOTOPIC_ATOM_COUNT>
0

> <PUBCHEM_COMPONENT_COUNT>
1

> <PUBCHEM_CACTVS_TAUTO_COUNT>
1

> <PUBCHEM_CONFORMER_ID>
00D25C3600000001

> <PUBCHEM_MMFF94_ENERGY>
62.498

> <PUBCHEM_FEATURE_SELFOVERLAP>
25.469

> <PUBCHEM_SHAPE_FINGERPRINT>
10130415 120 18408600374870217155
10967382 1 18410572898604054459
11471102 20 18337950189949142613
11680986 33 18195245752817386705
12032990 46 18410577314215478643
13221675 6 18410294717972754858
13690532 89 18412545418369686415
13862211 1 18411695487128372935
14115302 16 18041289854063373294
14911166 2 18410008845134045703
14993402 34 18412261740074778927
15196674 1 18338516330984046019
15536298 74 18200310051640318360
15848700 24 18272080608766145781
16945 1 18337096934560851897
193761 8 17834393801808392843
200 152 18334856100004473094
20510252 161 18129381510152391632
20671657 1 18194969762635660957
20871998 184 18129940066322386652
21029758 11 18343299271121672257
21029758 27 18261119581839194213
21267235 1 18410865364354726190
21501502 16 18123190104273114594
221490 88 18048037655918629531
2334 1 17978508963924378507
23402539 116 18272926103243322431
23463225 33 18409730629684019631
23552423 10 18119526784874250693
23557571 272 18130797707441985772
23559900 14 18412545444856934412
2748010 2 18121776398512633027
3071541 12 18194965381447349953
3071541 158 18260546766140354341
3312278 4 18333455356445163794
34934 24 18339353162702175026
43471831 8 18263924328527637994
537710 114 18335143093866446660
7364860 26 18127690637399681632
8809292 202 18261396701386835467

> <PUBCHEM_SHAPE_MULTIPOLES>
285.22
6.99
1.93
0.65
1.13
0.73
0
-2.15
-1.02
-0.02
0.15
0.15
-0.04
-0.11

> <PUBCHEM_SHAPE_SELFOVERLAP>
623.832

> <PUBCHEM_SHAPE_VOLUME>
155.2

> <PUBCHEM_COORDINATE_TYPE>
2
5
10

$$$$
