11692460
  -OEChem-09122012413D

 72 75  0     1  0  0  0  0  0999 V2000
   -1.8310    0.8703   -0.6937 O   0  0  0  0  0  0  0  0  0  0  0  0
   -0.1324   -0.1053    0.5739 O   0  0  0  0  0  0  0  0  0  0  0  0
    3.2285   -1.2890   -0.2728 O   0  0  0  0  0  0  0  0  0  0  0  0
   -3.5394   -0.3678   -1.6755 O   0  0  0  0  0  0  0  0  0  0  0  0
    4.7513    0.4653   -0.4911 O   0  0  0  0  0  0  0  0  0  0  0  0
    2.6536    0.6361   -2.3510 O   0  0  0  0  0  0  0  0  0  0  0  0
   -0.2189    0.6203   -3.0060 O   0  0  0  0  0  0  0  0  0  0  0  0
    5.2035   -2.8071    1.0698 O   0  0  0  0  0  0  0  0  0  0  0  0
    7.9276   -2.0262    0.2637 O   0  0  0  0  0  0  0  0  0  0  0  0
    8.2642    0.8369    0.4755 O   0  0  0  0  0  0  0  0  0  0  0  0
    0.3368   -1.6558    2.7947 O   0  0  0  0  0  0  0  0  0  0  0  0
   -2.7963    3.4869    1.7330 O   0  0  0  0  0  0  0  0  0  0  0  0
   -7.9472   -0.2188   -0.2190 O   0  0  0  0  0  0  0  0  0  0  0  0
    4.9402    3.2032   -0.6457 O   0  0  0  0  0  0  0  0  0  0  0  0
   -7.3169   -2.1294   -1.3641 O   0  0  0  0  0  0  0  0  0  0  0  0
   -4.0059    1.0440    0.3147 C   0  0  2  0  0  0  0  0  0  0  0  0
   -5.4067    0.4044    0.4530 C   0  0  2  0  0  0  0  0  0  0  0  0
    2.1316   -0.3795   -0.2476 C   0  0  1  0  0  0  0  0  0  0  0  0
   -3.0212    0.1254   -0.4327 C   0  0  2  0  0  0  0  0  0  0  0  0
    1.6516   -0.1266   -1.6769 C   0  0  1  0  0  0  0  0  0  0  0  0
   -0.6859    0.0193   -0.7340 C   0  0  2  0  0  0  0  0  0  0  0  0
    0.3313    0.6438   -1.6891 C   0  0  2  0  0  0  0  0  0  0  0  0
    1.0063   -0.9674    0.6072 C   0  0  1  0  0  0  0  0  0  0  0  0
   -5.4174   -0.2656    1.8355 C   0  0  0  0  0  0  0  0  0  0  0  0
   -3.6277    1.2523    1.7610 C   0  0  0  0  0  0  0  0  0  0  0  0
    4.4099   -0.6947    0.2641 C   0  0  2  0  0  0  0  0  0  0  0  0
   -5.7195   -0.5199   -0.6749 C   0  0  0  0  0  0  0  0  0  0  0  0
   -4.4012    0.5315    2.5832 C   0  0  0  0  0  0  0  0  0  0  0  0
    5.5320   -1.7303    0.1924 C   0  0  1  0  0  0  0  0  0  0  0  0
    6.8732   -1.1268    0.6096 C   0  0  2  0  0  0  0  0  0  0  0  0
    7.1295    0.1998   -0.1056 C   0  0  1  0  0  0  0  0  0  0  0  0
    5.9151    1.1238    0.0120 C   0  0  1  0  0  0  0  0  0  0  0  0
    1.4257   -1.1193    2.0659 C   0  0  0  0  0  0  0  0  0  0  0  0
   -2.5244    2.1628    2.1670 C   0  0  0  0  0  0  0  0  0  0  0  0
   -4.8331   -0.8100   -1.6319 C   0  0  0  0  0  0  0  0  0  0  0  0
   -7.0689   -1.0706   -0.8071 C   0  0  0  0  0  0  0  0  0  0  0  0
    6.1015    2.4065   -0.7922 C   0  0  0  0  0  0  0  0  0  0  0  0
   -9.3197   -0.6225   -0.2654 C   0  0  0  0  0  0  0  0  0  0  0  0
   -4.0959    2.0054   -0.2072 H   0  0  0  0  0  0  0  0  0  0  0  0
   -6.1307    1.2333    0.4622 H   0  0  0  0  0  0  0  0  0  0  0  0
    2.4183    0.5902    0.1863 H   0  0  0  0  0  0  0  0  0  0  0  0
   -2.7878   -0.7434    0.2018 H   0  0  0  0  0  0  0  0  0  0  0  0
    1.5519   -1.0686   -2.2303 H   0  0  0  0  0  0  0  0  0  0  0  0
   -0.9725   -0.9719   -1.1143 H   0  0  0  0  0  0  0  0  0  0  0  0
    0.5007    1.6965   -1.4305 H   0  0  0  0  0  0  0  0  0  0  0  0
    0.7075   -1.9569    0.2351 H   0  0  0  0  0  0  0  0  0  0  0  0
   -5.1256   -1.3212    1.8056 H   0  0  0  0  0  0  0  0  0  0  0  0
   -6.4049   -0.1857    2.3011 H   0  0  0  0  0  0  0  0  0  0  0  0
    4.2128   -0.4154    1.3079 H   0  0  0  0  0  0  0  0  0  0  0  0
   -4.3018    0.5092    3.6590 H   0  0  0  0  0  0  0  0  0  0  0  0
    5.6033   -2.1537   -0.8165 H   0  0  0  0  0  0  0  0  0  0  0  0
    6.9177   -1.0017    1.6986 H   0  0  0  0  0  0  0  0  0  0  0  0
    7.3660    0.0060   -1.1591 H   0  0  0  0  0  0  0  0  0  0  0  0
    5.7317    1.4032    1.0585 H   0  0  0  0  0  0  0  0  0  0  0  0
    2.2751   -1.7991    2.1757 H   0  0  0  0  0  0  0  0  0  0  0  0
    1.6841   -0.1535    2.5128 H   0  0  0  0  0  0  0  0  0  0  0  0
   -2.3970    2.1822    3.2547 H   0  0  0  0  0  0  0  0  0  0  0  0
   -1.5718    1.8492    1.7355 H   0  0  0  0  0  0  0  0  0  0  0  0
   -5.0481   -1.4024   -2.5113 H   0  0  0  0  0  0  0  0  0  0  0  0
    3.4745    0.1149   -2.3392 H   0  0  0  0  0  0  0  0  0  0  0  0
    0.4474    0.9977   -3.6056 H   0  0  0  0  0  0  0  0  0  0  0  0
    6.9618    2.9834   -0.4412 H   0  0  0  0  0  0  0  0  0  0  0  0
    6.2291    2.1954   -1.8591 H   0  0  0  0  0  0  0  0  0  0  0  0
    5.1308   -2.4501    1.9714 H   0  0  0  0  0  0  0  0  0  0  0  0
    8.7650   -1.6087    0.5289 H   0  0  0  0  0  0  0  0  0  0  0  0
    8.0610    1.0194    1.4088 H   0  0  0  0  0  0  0  0  0  0  0  0
   -0.4157   -1.0488    2.6889 H   0  0  0  0  0  0  0  0  0  0  0  0
   -3.6316    3.7680    2.1445 H   0  0  0  0  0  0  0  0  0  0  0  0
    4.1822    2.6780   -0.9549 H   0  0  0  0  0  0  0  0  0  0  0  0
   -9.4523   -1.5728    0.2606 H   0  0  0  0  0  0  0  0  0  0  0  0
   -9.6552   -0.7050   -1.3036 H   0  0  0  0  0  0  0  0  0  0  0  0
   -9.9164    0.1433    0.2370 H   0  0  0  0  0  0  0  0  0  0  0  0
  1 19  1  0  0  0  0
  1 21  1  0  0  0  0
  2 21  1  0  0  0  0
  2 23  1  0  0  0  0
  3 18  1  0  0  0  0
  3 26  1  0  0  0  0
  4 19  1  0  0  0  0
  4 35  1  0  0  0  0
  5 26  1  0  0  0  0
  5 32  1  0  0  0  0
  6 20  1  0  0  0  0
  6 60  1  0  0  0  0
  7 22  1  0  0  0  0
  7 61  1  0  0  0  0
  8 29  1  0  0  0  0
  8 64  1  0  0  0  0
  9 30  1  0  0  0  0
  9 65  1  0  0  0  0
 10 31  1  0  0  0  0
 10 66  1  0  0  0  0
 11 33  1  0  0  0  0
 11 67  1  0  0  0  0
 12 34  1  0  0  0  0
 12 68  1  0  0  0  0
 13 36  1  0  0  0  0
 13 38  1  0  0  0  0
 14 37  1  0  0  0  0
 14 69  1  0  0  0  0
 15 36  2  0  0  0  0
 16 17  1  0  0  0  0
 16 19  1  0  0  0  0
 16 25  1  0  0  0  0
 16 39  1  0  0  0  0
 17 24  1  0  0  0  0
 17 27  1  0  0  0  0
 17 40  1  0  0  0  0
 18 20  1  0  0  0  0
 18 23  1  0  0  0  0
 18 41  1  0  0  0  0
 19 42  1  0  0  0  0
 20 22  1  0  0  0  0
 20 43  1  0  0  0  0
 21 22  1  0  0  0  0
 21 44  1  0  0  0  0
 22 45  1  0  0  0  0
 23 33  1  0  0  0  0
 23 46  1  0  0  0  0
 24 28  1  0  0  0  0
 24 47  1  0  0  0  0
 24 48  1  0  0  0  0
 25 28  2  0  0  0  0
 25 34  1  0  0  0  0
 26 29  1  0  0  0  0
 26 49  1  0  0  0  0
 27 35  2  0  0  0  0
 27 36  1  0  0  0  0
 28 50  1  0  0  0  0
 29 30  1  0  0  0  0
 29 51  1  0  0  0  0
 30 31  1  0  0  0  0
 30 52  1  0  0  0  0
 31 32  1  0  0  0  0
 31 53  1  0  0  0  0
 32 37  1  0  0  0  0
 32 54  1  0  0  0  0
 33 55  1  0  0  0  0
 33 56  1  0  0  0  0
 34 57  1  0  0  0  0
 34 58  1  0  0  0  0
 35 59  1  0  0  0  0
 37 62  1  0  0  0  0
 37 63  1  0  0  0  0
 38 70  1  0  0  0  0
 38 71  1  0  0  0  0
 38 72  1  0  0  0  0
M  END
> <PUBCHEM_COMPOUND_CID>
11692460

> <PUBCHEM_CONFORMER_RMSD>
1.2

> <PUBCHEM_CONFORMER_DIVERSEORDER>
1
6
43
2
12
58
49
52
55
64
5
60
67
32
38
24
45
42
63
61
56
18
50
35
47
14
9
34
51
41
62
37
65
54
53
25
26
27
8
15
23
57
20
66
59
7
39
4
19
10
31
44
40
36
46
29
17
28
16
33
21
30
13
3
48
22
11

> <PUBCHEM_MMFF94_PARTIAL_CHARGES>
48
1 -0.56
10 -0.68
11 -0.68
12 -0.68
13 -0.43
14 -0.68
15 -0.57
16 0.14
17 0.14
18 0.28
19 0.56
2 -0.56
20 0.28
21 0.56
22 0.28
23 0.28
24 0.14
25 -0.28
26 0.56
27 -0.12
28 -0.29
29 0.28
3 -0.56
30 0.28
31 0.28
32 0.28
33 0.28
34 0.42
35 -0.07
36 0.71
37 0.28
38 0.28
4 -0.36
5 -0.56
50 0.15
59 0.15
6 -0.68
60 0.4
61 0.4
64 0.4
65 0.4
66 0.4
67 0.4
68 0.4
69 0.4
7 -0.68
8 -0.68
9 -0.68

> <PUBCHEM_EFFECTIVE_ROTOR_COUNT>
12

> <PUBCHEM_PHARMACOPHORE_FEATURES>
26
1 1 acceptor
1 10 acceptor
1 10 donor
1 11 acceptor
1 11 donor
1 12 acceptor
1 12 donor
1 14 acceptor
1 14 donor
1 15 acceptor
1 2 acceptor
1 3 acceptor
1 4 acceptor
1 5 acceptor
1 6 acceptor
1 6 donor
1 7 acceptor
1 7 donor
1 8 acceptor
1 8 donor
1 9 acceptor
1 9 donor
5 16 17 24 25 28 rings
6 2 18 20 21 22 23 rings
6 4 16 17 19 27 35 rings
6 5 26 29 30 31 32 rings

> <PUBCHEM_HEAVY_ATOM_COUNT>
38

> <PUBCHEM_ATOM_DEF_STEREO_COUNT>
13

> <PUBCHEM_ATOM_UDEF_STEREO_COUNT>
0

> <PUBCHEM_BOND_DEF_STEREO_COUNT>
0

> <PUBCHEM_BOND_UDEF_STEREO_COUNT>
0

> <PUBCHEM_ISOTOPIC_ATOM_COUNT>
0

> <PUBCHEM_COMPONENT_COUNT>
1

> <PUBCHEM_CACTVS_TAUTO_COUNT>
1

> <PUBCHEM_CONFORMER_ID>
00B269AC00000001

> <PUBCHEM_MMFF94_ENERGY>
102.4313

> <PUBCHEM_FEATURE_SELFOVERLAP>
132.275

> <PUBCHEM_SHAPE_FINGERPRINT>
10 15 16200431356129623551
10290309 65 15912773765189916853
10299344 5 18201998837033959375
10369192 42 14836404731017295653
10653451 467 17385442137763112446
11135926 11 16732984181182807907
11315181 36 18130787859282254011
11719270 70 16443062802959706586
11796584 16 12324251559423433576
12107698 1 18202563981847713481
12236239 1 18409446969112345991
12596602 18 18410011026987935969
12664476 115 14836402536578703210
13782708 43 17386848297572354634
13811026 1 16732988651726681347
14118638 360 16271934770647955863
14849402 71 18130785720167768160
14856354 85 17775564268960788687
15183329 4 17203608181795320968
18608769 82 15626219148186238543
19377110 9 18202005408486506660
21781055 127 13768197256600057109
21792961 116 15482398573117731942
23559900 14 15864357982353267581
23569943 247 17826788132578482314
249057 25 18341905086330819128
3004659 81 14129066919642644398
3633792 109 18113613470144246765
397830 11 17024039327123222688
4325135 7 18131633399980905333

> <PUBCHEM_SHAPE_MULTIPOLES>
693.98
24.48
2.33
2.26
0.48
1.69
0.26
-4.76
3.17
-3.21
-0.43
3.61
0.15
-2.45

> <PUBCHEM_SHAPE_SELFOVERLAP>
1461.533

> <PUBCHEM_SHAPE_VOLUME>
382.9

> <PUBCHEM_COORDINATE_TYPE>
2
5
10

$$$$
