102596096
  -OEChem-09122011343D

 70 72  0     1  0  0  0  0  0999 V2000
   -0.9269   -1.6012   -0.1481 O   0  0  0  0  0  0  0  0  0  0  0  0
   -3.1940   -1.0841    0.0445 O   0  0  0  0  0  0  0  0  0  0  0  0
    1.5979   -0.5777    0.2172 O   0  0  0  0  0  0  0  0  0  0  0  0
    3.9152   -0.4507    0.4584 O   0  0  0  0  0  0  0  0  0  0  0  0
    0.9264   -4.7528    0.0649 O   0  0  0  0  0  0  0  0  0  0  0  0
   -1.7469   -5.5950   -0.6420 O   0  0  0  0  0  0  0  0  0  0  0  0
   -3.7475   -3.8078    0.5762 O   0  0  0  0  0  0  0  0  0  0  0  0
    1.5889    2.0384   -0.8617 O   0  0  0  0  0  0  0  0  0  0  0  0
    3.8557    3.6421    0.1233 O   0  0  0  0  0  0  0  0  0  0  0  0
    6.3399    2.2067   -0.2292 O   0  0  0  0  0  0  0  0  0  0  0  0
   -1.2310    4.3208   -0.5176 O   0  0  0  0  0  0  0  0  0  0  0  0
    6.2088   -1.9655    0.4654 O   0  0  0  0  0  0  0  0  0  0  0  0
   -4.0818    2.5104    0.9210 C   0  0  0  0  0  0  0  0  0  0  0  0
   -3.9108    1.1943    0.0939 C   0  0  2  0  0  0  0  0  0  0  0  0
   -2.7375    3.2583    1.0123 C   0  0  0  0  0  0  0  0  0  0  0  0
    0.1465   -2.4752    0.2053 C   0  0  1  0  0  0  0  0  0  0  0  0
   -3.1621    0.0803    0.8431 C   0  0  0  0  0  0  0  0  0  0  0  0
   -2.1721   -2.0098    0.4131 C   0  0  1  0  0  0  0  0  0  0  0  0
   -0.1084   -3.8724   -0.3650 C   0  0  2  0  0  0  0  0  0  0  0  0
   -1.4592   -4.4122    0.1054 C   0  0  1  0  0  0  0  0  0  0  0  0
   -2.5719   -3.3873   -0.1155 C   0  0  1  0  0  0  0  0  0  0  0  0
   -3.2112    1.4529   -1.2325 C   0  0  0  0  0  0  0  0  0  0  0  0
   -5.1394    3.4207    0.2458 C   0  0  0  0  0  0  0  0  0  0  0  0
   -4.5878    2.2270    2.3505 C   0  0  0  0  0  0  0  0  0  0  0  0
    1.4338   -1.8676   -0.3431 C   0  0  0  0  0  0  0  0  0  0  0  0
    2.7877    0.0553   -0.2526 C   0  0  2  0  0  0  0  0  0  0  0  0
    2.6417    1.5598   -0.0252 C   0  0  1  0  0  0  0  0  0  0  0  0
    3.9352    2.3014   -0.3631 C   0  0  2  0  0  0  0  0  0  0  0  0
    5.1440    1.6319    0.2912 C   0  0  1  0  0  0  0  0  0  0  0  0
   -2.0605    3.4316   -0.3301 C   0  0  0  0  0  0  0  0  0  0  0  0
    5.1454    0.1262    0.0169 C   0  0  1  0  0  0  0  0  0  0  0  0
   -2.3683    2.4796   -1.4235 C   0  0  0  0  0  0  0  0  0  0  0  0
   -3.5265    0.5029   -2.3553 C   0  0  0  0  0  0  0  0  0  0  0  0
    6.2766   -0.5813    0.7563 C   0  0  0  0  0  0  0  0  0  0  0  0
   -4.9193    0.8181   -0.1320 H   0  0  0  0  0  0  0  0  0  0  0  0
    0.2258   -2.5047    1.3006 H   0  0  0  0  0  0  0  0  0  0  0  0
   -2.0332    2.7234    1.6606 H   0  0  0  0  0  0  0  0  0  0  0  0
   -2.8925    4.2549    1.4437 H   0  0  0  0  0  0  0  0  0  0  0  0
   -3.6510   -0.1624    1.7911 H   0  0  0  0  0  0  0  0  0  0  0  0
   -2.1297    0.3869    1.0526 H   0  0  0  0  0  0  0  0  0  0  0  0
   -0.0830   -3.8485   -1.4614 H   0  0  0  0  0  0  0  0  0  0  0  0
   -2.0966   -2.0378    1.5096 H   0  0  0  0  0  0  0  0  0  0  0  0
   -1.4126   -4.7194    1.1568 H   0  0  0  0  0  0  0  0  0  0  0  0
   -2.8346   -3.3282   -1.1784 H   0  0  0  0  0  0  0  0  0  0  0  0
   -5.4942    1.6117    2.3333 H   0  0  0  0  0  0  0  0  0  0  0  0
   -4.8295    3.1596    2.8739 H   0  0  0  0  0  0  0  0  0  0  0  0
   -6.1127    2.9186    0.1996 H   0  0  0  0  0  0  0  0  0  0  0  0
   -4.8661    3.7003   -0.7762 H   0  0  0  0  0  0  0  0  0  0  0  0
   -5.2755    4.3508    0.8098 H   0  0  0  0  0  0  0  0  0  0  0  0
   -3.8362    1.7129    2.9585 H   0  0  0  0  0  0  0  0  0  0  0  0
    1.3620   -1.7743   -1.4337 H   0  0  0  0  0  0  0  0  0  0  0  0
    2.2957   -2.4957   -0.0920 H   0  0  0  0  0  0  0  0  0  0  0  0
    2.9040   -0.1478   -1.3265 H   0  0  0  0  0  0  0  0  0  0  0  0
    2.3408    1.7639    1.0093 H   0  0  0  0  0  0  0  0  0  0  0  0
    4.0708    2.3781   -1.4483 H   0  0  0  0  0  0  0  0  0  0  0  0
    5.1319    1.8239    1.3711 H   0  0  0  0  0  0  0  0  0  0  0  0
    5.2613   -0.0793   -1.0561 H   0  0  0  0  0  0  0  0  0  0  0  0
   -1.8788    2.6487   -2.3765 H   0  0  0  0  0  0  0  0  0  0  0  0
   -4.5962    0.2717   -2.3829 H   0  0  0  0  0  0  0  0  0  0  0  0
   -2.9629   -0.4289   -2.2672 H   0  0  0  0  0  0  0  0  0  0  0  0
   -3.2734    0.9396   -3.3284 H   0  0  0  0  0  0  0  0  0  0  0  0
    6.1687   -0.4629    1.8396 H   0  0  0  0  0  0  0  0  0  0  0  0
    7.2562   -0.2048    0.4468 H   0  0  0  0  0  0  0  0  0  0  0  0
    0.9214   -4.7702    1.0372 H   0  0  0  0  0  0  0  0  0  0  0  0
   -1.8124   -5.3510   -1.5811 H   0  0  0  0  0  0  0  0  0  0  0  0
   -3.5357   -3.8655    1.5236 H   0  0  0  0  0  0  0  0  0  0  0  0
    1.8349    1.8645   -1.7862 H   0  0  0  0  0  0  0  0  0  0  0  0
    3.7168    3.6073    1.0851 H   0  0  0  0  0  0  0  0  0  0  0  0
    6.3670    2.0299   -1.1851 H   0  0  0  0  0  0  0  0  0  0  0  0
    6.9343   -2.3963    0.9487 H   0  0  0  0  0  0  0  0  0  0  0  0
  1 16  1  0  0  0  0
  1 18  1  0  0  0  0
  2 17  1  0  0  0  0
  2 18  1  0  0  0  0
  3 25  1  0  0  0  0
  3 26  1  0  0  0  0
  4 26  1  0  0  0  0
  4 31  1  0  0  0  0
  5 19  1  0  0  0  0
  5 64  1  0  0  0  0
  6 20  1  0  0  0  0
  6 65  1  0  0  0  0
  7 21  1  0  0  0  0
  7 66  1  0  0  0  0
  8 27  1  0  0  0  0
  8 67  1  0  0  0  0
  9 28  1  0  0  0  0
  9 68  1  0  0  0  0
 10 29  1  0  0  0  0
 10 69  1  0  0  0  0
 11 30  2  0  0  0  0
 12 34  1  0  0  0  0
 12 70  1  0  0  0  0
 13 14  1  0  0  0  0
 13 15  1  0  0  0  0
 13 23  1  0  0  0  0
 13 24  1  0  0  0  0
 14 17  1  0  0  0  0
 14 22  1  0  0  0  0
 14 35  1  0  0  0  0
 15 30  1  0  0  0  0
 15 37  1  0  0  0  0
 15 38  1  0  0  0  0
 16 19  1  0  0  0  0
 16 25  1  0  0  0  0
 16 36  1  0  0  0  0
 17 39  1  0  0  0  0
 17 40  1  0  0  0  0
 18 21  1  0  0  0  0
 18 42  1  0  0  0  0
 19 20  1  0  0  0  0
 19 41  1  0  0  0  0
 20 21  1  0  0  0  0
 20 43  1  0  0  0  0
 21 44  1  0  0  0  0
 22 32  2  0  0  0  0
 22 33  1  0  0  0  0
 23 47  1  0  0  0  0
 23 48  1  0  0  0  0
 23 49  1  0  0  0  0
 24 45  1  0  0  0  0
 24 46  1  0  0  0  0
 24 50  1  0  0  0  0
 25 51  1  0  0  0  0
 25 52  1  0  0  0  0
 26 27  1  0  0  0  0
 26 53  1  0  0  0  0
 27 28  1  0  0  0  0
 27 54  1  0  0  0  0
 28 29  1  0  0  0  0
 28 55  1  0  0  0  0
 29 31  1  0  0  0  0
 29 56  1  0  0  0  0
 30 32  1  0  0  0  0
 31 34  1  0  0  0  0
 31 57  1  0  0  0  0
 32 58  1  0  0  0  0
 33 59  1  0  0  0  0
 33 60  1  0  0  0  0
 33 61  1  0  0  0  0
 34 62  1  0  0  0  0
 34 63  1  0  0  0  0
M  END
> <PUBCHEM_COMPOUND_CID>
102596096

> <PUBCHEM_CONFORMER_RMSD>
1

> <PUBCHEM_CONFORMER_DIVERSEORDER>
1
73
153
14
223
201
22
32
197
114
5
231
248
77
207
155
42
200
60
242
233
237
221
85
247
203
90
147
96
47
68
101
75
27
91
141
182
205
121
98
232
116
214
195
111
123
176
79
76
53
210
212
127
244
38
251
126
187
175
66
174
188
145
199
67
184
162
225
243
136
138
113
238
109
211
154
179
54
252
48
62
25
250
206
193
209
70
204
81
163
192
167
34
39
253
198
43
228
181
18
106
158
40
142
137
254
64
226
56
21
189
29
24
44
229
110
185
36
173
161
50
97
46
151
165
240
16
99
100
220
103
124
115
112
224
9
139
45
183
12
118
119
7
58
146
86
245
130
122
191
132
104
107
13
65
35
241
95
172
93
230
171
164
89
117
51
105
128
236
218
133
144
234
255
150
227
166
78
83
57
4
239
235
180
219
10
33
213
52
15
28
61
249
157
194
169
23
20
84
94
134
156
49
55
208
148
143
129
178
63
69
177
102
202
131
135
186
19
74
37
246
170
196
215
17
222
82
30
256
31
149
59
11
120
88
108
168
190
152
160
92
217
6
72
8
140
26
3
125
159
41
2
87
71
80
216

> <PUBCHEM_MMFF94_PARTIAL_CHARGES>
39
1 -0.56
10 -0.68
11 -0.57
12 -0.68
14 0.14
15 0.06
16 0.28
17 0.28
18 0.56
19 0.28
2 -0.56
20 0.28
21 0.28
22 -0.28
25 0.28
26 0.56
27 0.28
28 0.28
29 0.28
3 -0.56
30 0.49
31 0.28
32 -0.14
33 0.14
34 0.28
4 -0.56
5 -0.68
58 0.15
6 -0.68
64 0.4
65 0.4
66 0.4
67 0.4
68 0.4
69 0.4
7 -0.68
70 0.4
8 -0.68
9 -0.68

> <PUBCHEM_EFFECTIVE_ROTOR_COUNT>
10

> <PUBCHEM_PHARMACOPHORE_FEATURES>
23
1 1 acceptor
1 10 acceptor
1 10 donor
1 11 acceptor
1 12 acceptor
1 12 donor
1 2 acceptor
1 3 acceptor
1 4 acceptor
1 5 acceptor
1 5 donor
1 6 acceptor
1 6 donor
1 7 acceptor
1 7 donor
1 8 acceptor
1 8 donor
1 9 acceptor
1 9 donor
3 13 23 24 hydrophobe
6 1 16 18 19 20 21 rings
6 13 14 15 22 30 32 rings
6 4 26 27 28 29 31 rings

> <PUBCHEM_HEAVY_ATOM_COUNT>
34

> <PUBCHEM_ATOM_DEF_STEREO_COUNT>
11

> <PUBCHEM_ATOM_UDEF_STEREO_COUNT>
0

> <PUBCHEM_BOND_DEF_STEREO_COUNT>
0

> <PUBCHEM_BOND_UDEF_STEREO_COUNT>
0

> <PUBCHEM_ISOTOPIC_ATOM_COUNT>
0

> <PUBCHEM_COMPONENT_COUNT>
1

> <PUBCHEM_CACTVS_TAUTO_COUNT>
8

> <PUBCHEM_CONFORMER_ID>
061D7E0000000001

> <PUBCHEM_MMFF94_ENERGY>
94.7601

> <PUBCHEM_FEATURE_SELFOVERLAP>
116.864

> <PUBCHEM_SHAPE_FINGERPRINT>
10050765 1 18338516448277835792
11135609 187 18336814309456819365
12107183 9 18336822005943125530
12978246 48 18335983060636797976
138480 1 17257936992316433163
14363568 33 17690859864705175851
14466204 15 18265328418219658586
14790565 3 18265895757619152118
15021287 119 17168142330819776980
15081414 286 17189258197675178611
15320467 1 17906172111255796120
15400415 2 18267023864639129352
16112460 7 18055357925094364362
17818456 19 18335700589728353710
19311894 1 18410007758449375370
19319366 153 18057323890613925585
19930381 70 18048883992441420177
20764821 26 18336555979124793925
229767 44 18409168788090955000
25019877 29 17845670247614842023
4197921 191 18260547874763649110
6371009 1 18338780248139705927
653340 110 18268144451971230400
6700243 42 17480902969842272958
79837 15 18410009940150648874
9981440 41 18410015399417968987

> <PUBCHEM_SHAPE_MULTIPOLES>
629.27
12.72
7.41
1.25
17.75
8.09
0.11
-10.23
-2.79
-4.44
0.23
-1.89
-0.72
-0.86

> <PUBCHEM_SHAPE_SELFOVERLAP>
1298.747

> <PUBCHEM_SHAPE_VOLUME>
355.7

> <PUBCHEM_COORDINATE_TYPE>
2
5
10

$$$$
