129848169
  -OEChem-09122012463D

 23 23  0     1  0  0  0  0  0999 V2000
   -2.1827    0.9930    0.6334 O   0  0  0  0  0  0  0  0  0  0  0  0
   -1.4905    0.5373   -1.5497 O   0  0  0  0  0  0  0  0  0  0  0  0
   -2.6258   -1.6984    0.1917 O   0  0  0  0  0  0  0  0  0  0  0  0
    2.8082    1.5060    0.5857 O   0  0  0  0  0  0  0  0  0  0  0  0
    3.5658   -0.3180   -0.5674 O   0  0  0  0  0  0  0  0  0  0  0  0
   -1.2194    0.3015   -0.1648 C   0  0  1  0  0  0  0  0  0  0  0  0
    0.1888    0.8711    0.1532 C   0  0  0  0  0  0  0  0  0  0  0  0
    1.2892   -0.1511    0.0959 C   0  0  0  0  0  0  0  0  0  0  0  0
   -1.3473   -1.1822    0.1116 C   0  0  0  0  0  0  0  0  0  0  0  0
    1.0622   -1.4708    0.1428 C   0  0  0  0  0  0  0  0  0  0  0  0
   -0.2814   -1.9809    0.2649 C   0  0  0  0  0  0  0  0  0  0  0  0
    2.6763    0.3043   -0.0147 C   0  0  0  0  0  0  0  0  0  0  0  0
   -2.4434    2.2882    0.1174 C   0  0  0  0  0  0  0  0  0  0  0  0
    0.1867    1.2941    1.1677 H   0  0  0  0  0  0  0  0  0  0  0  0
    0.4335    1.6984   -0.5250 H   0  0  0  0  0  0  0  0  0  0  0  0
    1.8635   -2.2019    0.1109 H   0  0  0  0  0  0  0  0  0  0  0  0
   -0.3912   -3.0435    0.4551 H   0  0  0  0  0  0  0  0  0  0  0  0
   -0.9866    1.3056   -1.8628 H   0  0  0  0  0  0  0  0  0  0  0  0
   -3.0656    2.8142    0.8481 H   0  0  0  0  0  0  0  0  0  0  0  0
   -3.0173    2.2369   -0.8132 H   0  0  0  0  0  0  0  0  0  0  0  0
   -1.5321    2.8770   -0.0204 H   0  0  0  0  0  0  0  0  0  0  0  0
   -2.5627   -2.6529    0.3680 H   0  0  0  0  0  0  0  0  0  0  0  0
    3.7268    1.8459    0.5324 H   0  0  0  0  0  0  0  0  0  0  0  0
  1  6  1  0  0  0  0
  1 13  1  0  0  0  0
  2  6  1  0  0  0  0
  2 18  1  0  0  0  0
  3  9  1  0  0  0  0
  3 22  1  0  0  0  0
  4 12  1  0  0  0  0
  4 23  1  0  0  0  0
  5 12  2  0  0  0  0
  6  7  1  0  0  0  0
  6  9  1  0  0  0  0
  7  8  1  0  0  0  0
  7 14  1  0  0  0  0
  7 15  1  0  0  0  0
  8 10  2  0  0  0  0
  8 12  1  0  0  0  0
  9 11  2  0  0  0  0
 10 11  1  0  0  0  0
 10 16  1  0  0  0  0
 11 17  1  0  0  0  0
 13 19  1  0  0  0  0
 13 20  1  0  0  0  0
 13 21  1  0  0  0  0
M  END
> <PUBCHEM_COMPOUND_CID>
129848169

> <PUBCHEM_CONFORMER_RMSD>
0.6

> <PUBCHEM_CONFORMER_DIVERSEORDER>
1
2
5
8
3
4
6
7

> <PUBCHEM_MMFF94_PARTIAL_CHARGES>
18
1 -0.56
10 -0.15
11 -0.15
12 0.71
13 0.28
16 0.15
17 0.15
18 0.4
2 -0.68
22 0.45
23 0.5
3 -0.53
4 -0.65
5 -0.57
6 0.7
7 0.14
8 -0.12
9 -0.06

> <PUBCHEM_EFFECTIVE_ROTOR_COUNT>
2.4

> <PUBCHEM_PHARMACOPHORE_FEATURES>
8
1 1 acceptor
1 2 acceptor
1 2 donor
1 3 donor
1 4 acceptor
1 5 acceptor
3 4 5 12 anion
6 6 7 8 9 10 11 rings

> <PUBCHEM_HEAVY_ATOM_COUNT>
13

> <PUBCHEM_ATOM_DEF_STEREO_COUNT>
0

> <PUBCHEM_ATOM_UDEF_STEREO_COUNT>
1

> <PUBCHEM_BOND_DEF_STEREO_COUNT>
0

> <PUBCHEM_BOND_UDEF_STEREO_COUNT>
0

> <PUBCHEM_ISOTOPIC_ATOM_COUNT>
0

> <PUBCHEM_COMPONENT_COUNT>
1

> <PUBCHEM_CACTVS_TAUTO_COUNT>
4

> <PUBCHEM_CONFORMER_ID>
07BD536900000001

> <PUBCHEM_MMFF94_ENERGY>
27.5224

> <PUBCHEM_FEATURE_SELFOVERLAP>
40.695

> <PUBCHEM_SHAPE_FINGERPRINT>
10608611 8 18342737459724825152
11206711 2 18336824281499883927
12423570 1 17676780759792029189
12716758 59 18412545418443474618
12932764 1 17676201356198776240
13024252 1 13840256013856566687
13380535 21 18265344918787781235
13380535 76 18339075965370602763
14325111 11 18411139143182338272
14614273 12 18114165454476572895
15775835 57 18188215303707481696
16945 1 18265059208983885818
17844478 74 18264499544669870658
193761 8 18265896860946004683
19973954 147 18340487884598639088
20510252 161 18341896358666623544
20653085 51 17775288231238568288
21040471 1 18337952281555926802
21501502 16 18335980861550219234
21524375 3 18265893549530980897
22802520 49 18130518443988187158
23235685 24 18337952277292724864
23402539 116 18197765798929409718
23559900 14 18270967844029999726
241688 4 17907011034290461851
25 1 18123472678703456692
2748010 2 18410857646424965974
369184 2 17988927828924983490
5084963 1 17967811690996999246
528862 383 17973725766342338211
528886 8 18339358552791153680
53812653 217 17988066842748736055
6333449 129 18411418418687348462
81228 2 18117559745608396338

> <PUBCHEM_SHAPE_MULTIPOLES>
238.19
4.38
2.16
0.81
2.33
0.13
0.2
-1.51
0.09
-1.21
-0.31
-0.16
-0.11
0.17

> <PUBCHEM_SHAPE_SELFOVERLAP>
494.023

> <PUBCHEM_SHAPE_VOLUME>
132.8

> <PUBCHEM_COORDINATE_TYPE>
2
5
10

$$$$
