14081907
  -OEChem-09122011033D

 45 47  0     1  0  0  0  0  0999 V2000
   -0.2342   -0.6347   -0.2898 O   0  0  0  0  0  0  0  0  0  0  0  0
    1.5986    0.7967   -0.4798 O   0  0  0  0  0  0  0  0  0  0  0  0
   -1.2004    0.8776    1.2359 O   0  0  0  0  0  0  0  0  0  0  0  0
    1.4553   -2.6152    0.8197 O   0  0  0  0  0  0  0  0  0  0  0  0
    4.2402   -2.3247   -0.0974 O   0  0  0  0  0  0  0  0  0  0  0  0
    5.1558    0.3895    0.2911 O   0  0  0  0  0  0  0  0  0  0  0  0
   -2.0298   -2.9001   -0.8697 O   0  0  0  0  0  0  0  0  0  0  0  0
    2.3273    3.4470   -0.4559 O   0  0  0  0  0  0  0  0  0  0  0  0
   -2.4911    0.1183   -0.7408 C   0  0  1  0  0  0  0  0  0  0  0  0
   -3.4707    1.3079   -0.5912 C   0  0  1  0  0  0  0  0  0  0  0  0
   -1.1232    0.4679   -0.1340 C   0  0  2  0  0  0  0  0  0  0  0  0
   -4.8655    0.6655   -0.5319 C   0  0  0  0  0  0  0  0  0  0  0  0
   -3.2748   -1.0131   -0.1111 C   0  0  0  0  0  0  0  0  0  0  0  0
    1.0664   -0.3301    0.2128 C   0  0  2  0  0  0  0  0  0  0  0  0
    1.9525   -1.5574    0.0002 C   0  0  1  0  0  0  0  0  0  0  0  0
    3.4058   -1.2657    0.3746 C   0  0  2  0  0  0  0  0  0  0  0  0
    3.8901    0.0373   -0.2615 C   0  0  1  0  0  0  0  0  0  0  0  0
    2.8934    1.1702   -0.0054 C   0  0  1  0  0  0  0  0  0  0  0  0
   -4.5755   -0.7060   -0.0163 C   0  0  0  0  0  0  0  0  0  0  0  0
   -3.1917    2.1050    0.6593 C   0  0  0  0  0  0  0  0  0  0  0  0
   -2.6681   -2.3195    0.2579 C   0  0  0  0  0  0  0  0  0  0  0  0
   -2.1566    1.8320    1.4619 C   0  0  0  0  0  0  0  0  0  0  0  0
    3.2963    2.4513   -0.7288 C   0  0  0  0  0  0  0  0  0  0  0  0
   -2.3563   -0.1335   -1.8020 H   0  0  0  0  0  0  0  0  0  0  0  0
   -3.3942    1.9875   -1.4484 H   0  0  0  0  0  0  0  0  0  0  0  0
   -0.7219    1.3112   -0.7147 H   0  0  0  0  0  0  0  0  0  0  0  0
   -5.3146    0.5967   -1.5288 H   0  0  0  0  0  0  0  0  0  0  0  0
   -5.5560    1.2033    0.1257 H   0  0  0  0  0  0  0  0  0  0  0  0
    0.9918   -0.1108    1.2862 H   0  0  0  0  0  0  0  0  0  0  0  0
    1.8895   -1.9046   -1.0379 H   0  0  0  0  0  0  0  0  0  0  0  0
    3.5256   -1.2395    1.4648 H   0  0  0  0  0  0  0  0  0  0  0  0
    4.0333   -0.1141   -1.3384 H   0  0  0  0  0  0  0  0  0  0  0  0
    2.8193    1.3956    1.0674 H   0  0  0  0  0  0  0  0  0  0  0  0
   -5.3398   -1.3738    0.3552 H   0  0  0  0  0  0  0  0  0  0  0  0
   -3.8845    2.8951    0.9334 H   0  0  0  0  0  0  0  0  0  0  0  0
   -3.4291   -3.0259    0.6053 H   0  0  0  0  0  0  0  0  0  0  0  0
   -1.9377   -2.2053    1.0651 H   0  0  0  0  0  0  0  0  0  0  0  0
   -1.9868    2.3326    2.4045 H   0  0  0  0  0  0  0  0  0  0  0  0
    3.3291    2.3056   -1.8136 H   0  0  0  0  0  0  0  0  0  0  0  0
    4.2705    2.8172   -0.3923 H   0  0  0  0  0  0  0  0  0  0  0  0
    1.5028   -2.3266    1.7471 H   0  0  0  0  0  0  0  0  0  0  0  0
    5.1560   -2.1031    0.1437 H   0  0  0  0  0  0  0  0  0  0  0  0
    5.0373    0.5331    1.2455 H   0  0  0  0  0  0  0  0  0  0  0  0
   -1.2534   -2.3561   -1.0859 H   0  0  0  0  0  0  0  0  0  0  0  0
    1.4654    3.1084   -0.7531 H   0  0  0  0  0  0  0  0  0  0  0  0
  1 11  1  0  0  0  0
  1 14  1  0  0  0  0
  2 14  1  0  0  0  0
  2 18  1  0  0  0  0
  3 11  1  0  0  0  0
  3 22  1  0  0  0  0
  4 15  1  0  0  0  0
  4 41  1  0  0  0  0
  5 16  1  0  0  0  0
  5 42  1  0  0  0  0
  6 17  1  0  0  0  0
  6 43  1  0  0  0  0
  7 21  1  0  0  0  0
  7 44  1  0  0  0  0
  8 23  1  0  0  0  0
  8 45  1  0  0  0  0
  9 10  1  0  0  0  0
  9 11  1  0  0  0  0
  9 13  1  0  0  0  0
  9 24  1  0  0  0  0
 10 12  1  0  0  0  0
 10 20  1  0  0  0  0
 10 25  1  0  0  0  0
 11 26  1  0  0  0  0
 12 19  1  0  0  0  0
 12 27  1  0  0  0  0
 12 28  1  0  0  0  0
 13 19  2  0  0  0  0
 13 21  1  0  0  0  0
 14 15  1  0  0  0  0
 14 29  1  0  0  0  0
 15 16  1  0  0  0  0
 15 30  1  0  0  0  0
 16 17  1  0  0  0  0
 16 31  1  0  0  0  0
 17 18  1  0  0  0  0
 17 32  1  0  0  0  0
 18 23  1  0  0  0  0
 18 33  1  0  0  0  0
 19 34  1  0  0  0  0
 20 22  2  0  0  0  0
 20 35  1  0  0  0  0
 21 36  1  0  0  0  0
 21 37  1  0  0  0  0
 22 38  1  0  0  0  0
 23 39  1  0  0  0  0
 23 40  1  0  0  0  0
M  END
> <PUBCHEM_COMPOUND_CID>
14081907

> <PUBCHEM_CONFORMER_RMSD>
0.8

> <PUBCHEM_CONFORMER_DIVERSEORDER>
1
9
80
74
40
70
62
5
31
28
73
67
42
55
33
78
32
71
57
3
43
51
24
35
10
25
68
60
11
63
46
26
17
81
48
47
65
58
79
34
69
54
36
66
13
39
4
20
76
12
75
38
52
53
21
45
7
37
61
77
14
22
2
44
8
41
72
64
49
18
56
16
30
50
23
59
29
6
15
19
27

> <PUBCHEM_MMFF94_PARTIAL_CHARGES>
31
1 -0.56
10 0.14
11 0.56
12 0.14
13 -0.28
14 0.56
15 0.28
16 0.28
17 0.28
18 0.28
19 -0.29
2 -0.56
20 -0.29
21 0.42
22 -0.07
23 0.28
3 -0.36
34 0.15
35 0.15
38 0.15
4 -0.68
41 0.4
42 0.4
43 0.4
44 0.4
45 0.4
5 -0.68
6 -0.68
7 -0.68
8 -0.68
9 0.14

> <PUBCHEM_EFFECTIVE_ROTOR_COUNT>
5.8

> <PUBCHEM_PHARMACOPHORE_FEATURES>
16
1 1 acceptor
1 2 acceptor
1 3 acceptor
1 4 acceptor
1 4 donor
1 5 acceptor
1 5 donor
1 6 acceptor
1 6 donor
1 7 acceptor
1 7 donor
1 8 acceptor
1 8 donor
5 9 10 12 13 19 rings
6 2 14 15 16 17 18 rings
6 3 9 10 11 20 22 rings

> <PUBCHEM_HEAVY_ATOM_COUNT>
23

> <PUBCHEM_ATOM_DEF_STEREO_COUNT>
8

> <PUBCHEM_ATOM_UDEF_STEREO_COUNT>
0

> <PUBCHEM_BOND_DEF_STEREO_COUNT>
0

> <PUBCHEM_BOND_UDEF_STEREO_COUNT>
0

> <PUBCHEM_ISOTOPIC_ATOM_COUNT>
0

> <PUBCHEM_COMPONENT_COUNT>
1

> <PUBCHEM_CACTVS_TAUTO_COUNT>
1

> <PUBCHEM_CONFORMER_ID>
00D6DF7300000001

> <PUBCHEM_MMFF94_ENERGY>
54.5845

> <PUBCHEM_FEATURE_SELFOVERLAP>
81.545

> <PUBCHEM_SHAPE_FINGERPRINT>
10366900 7 17418086616068754003
10616163 171 18340769337826460191
10759866 29 18338521957660255500
11370993 70 18335415772855844327
12107183 9 17763183544551222128
12236239 1 18201435844141219500
12507557 5 18408600374949754032
12553582 1 18047188549426561762
12788726 201 17775015557351695177
12916754 54 18335703819301277589
13009979 54 17915469298518130136
13167823 11 18409446977264560343
13224815 77 17846781797381047281
13583140 156 17822016393340315897
14341114 176 18412830174617060662
14787075 74 17764873884902138053
14790565 3 18270972250413686169
15196674 1 18410290289745713983
15442244 35 18339080385081607582
16752209 62 17988070089976042163
17349148 13 18131347466796343549
17492 89 18409731802348105506
18681886 176 18342731945155440282
19930381 70 18047751791280016861
200 152 18342735209045527531
20715895 44 18050561851433336189
21267235 1 18411145718413589887
21709351 56 18335976553998247460
221490 88 18335146439857226626
23227448 37 18408600396482476727
23402539 116 18201991102488481701
23558518 356 17771362885181720363
23559900 14 18413100658598218802
312423 11 18271259252063292353
3380486 145 17033621738131180858
350125 39 18337394958347390184
3545911 37 18411699889622318924
4214541 1 18409728443740838415
4280585 95 17696205712057898550
474 4 18333732433607367872
5104073 3 18410291372093037858
58051976 100 18407762534209534423
58051976 378 18341612637390452790
67856867 119 18338228375339970968
9709674 26 18411422804087003783
9981440 41 17832701653835694160

> <PUBCHEM_SHAPE_MULTIPOLES>
426.37
9.77
3.15
0.93
2.21
0.01
0.16
0.47
-0.76
1.12
-0.05
-0.41
0.25
-1

> <PUBCHEM_SHAPE_SELFOVERLAP>
897.918

> <PUBCHEM_SHAPE_VOLUME>
235.7

> <PUBCHEM_COORDINATE_TYPE>
2
5
10

$$$$
