5496475
  -OEChem-09122012503D

 42 44  0     0  0  0  0  0  0999 V2000
   -0.3838    0.5738   -0.1755 O   0  0  0  0  0  0  0  0  0  0  0  0
   -5.8965    0.4380    0.1529 O   0  0  0  0  0  0  0  0  0  0  0  0
   -4.4954   -1.8574    0.6180 O   0  0  0  0  0  0  0  0  0  0  0  0
    4.3069    2.2727    0.4107 O   0  0  0  0  0  0  0  0  0  0  0  0
    5.9248    0.1933   -0.4441 O   0  0  0  0  0  0  0  0  0  0  0  0
   -2.1434   -2.9822    0.7508 O   0  0  0  0  0  0  0  0  0  0  0  0
   -4.5694    2.7821   -0.4683 O   0  0  0  0  0  0  0  0  0  0  0  0
    4.7961   -2.2624   -1.0493 O   0  0  0  0  0  0  0  0  0  0  0  0
   -2.4161   -0.6930    0.2317 C   0  0  0  0  0  0  0  0  0  0  0  0
   -1.7501    0.4906   -0.0820 C   0  0  0  0  0  0  0  0  0  0  0  0
    0.3650   -0.5689    0.0609 C   0  0  0  0  0  0  0  0  0  0  0  0
    1.8222   -0.3693   -0.0712 C   0  0  0  0  0  0  0  0  0  0  0  0
   -1.6252   -1.9093    0.4738 C   0  0  0  0  0  0  0  0  0  0  0  0
   -3.8103   -0.7191    0.3127 C   0  0  0  0  0  0  0  0  0  0  0  0
   -0.1594   -1.7671    0.3643 C   0  0  0  0  0  0  0  0  0  0  0  0
   -2.4767    1.6581   -0.3173 C   0  0  0  0  0  0  0  0  0  0  0  0
   -4.5344    0.4503    0.0773 C   0  0  0  0  0  0  0  0  0  0  0  0
    2.3914    0.8698    0.2338 C   0  0  0  0  0  0  0  0  0  0  0  0
    2.6382   -1.4181   -0.5020 C   0  0  0  0  0  0  0  0  0  0  0  0
   -3.8694    1.6363   -0.2371 C   0  0  0  0  0  0  0  0  0  0  0  0
    3.7679    1.0586    0.1088 C   0  0  0  0  0  0  0  0  0  0  0  0
    4.5795    0.0089   -0.3216 C   0  0  0  0  0  0  0  0  0  0  0  0
    4.0146   -1.2295   -0.6269 C   0  0  0  0  0  0  0  0  0  0  0  0
   -6.6076    0.1418   -1.0464 C   0  0  0  0  0  0  0  0  0  0  0  0
    3.4077    3.2916    0.8434 C   0  0  0  0  0  0  0  0  0  0  0  0
    6.7236   -0.0893    0.7026 C   0  0  0  0  0  0  0  0  0  0  0  0
    0.4283   -2.6558    0.5615 H   0  0  0  0  0  0  0  0  0  0  0  0
   -1.9606    2.5829   -0.5622 H   0  0  0  0  0  0  0  0  0  0  0  0
    1.7249    1.6540    0.5766 H   0  0  0  0  0  0  0  0  0  0  0  0
    2.2201   -2.3859   -0.7681 H   0  0  0  0  0  0  0  0  0  0  0  0
   -3.8864   -2.5981    0.7585 H   0  0  0  0  0  0  0  0  0  0  0  0
   -5.5147    2.6009   -0.3280 H   0  0  0  0  0  0  0  0  0  0  0  0
    4.2356   -3.0406   -1.2109 H   0  0  0  0  0  0  0  0  0  0  0  0
   -7.6783    0.2038   -0.8337 H   0  0  0  0  0  0  0  0  0  0  0  0
   -6.3780   -0.8723   -1.3884 H   0  0  0  0  0  0  0  0  0  0  0  0
   -6.3653    0.8649   -1.8316 H   0  0  0  0  0  0  0  0  0  0  0  0
    2.9219    3.0272    1.7889 H   0  0  0  0  0  0  0  0  0  0  0  0
    2.6874    3.5547    0.0611 H   0  0  0  0  0  0  0  0  0  0  0  0
    4.0066    4.1880    1.0358 H   0  0  0  0  0  0  0  0  0  0  0  0
    6.6240   -1.1401    0.9925 H   0  0  0  0  0  0  0  0  0  0  0  0
    6.4412    0.5588    1.5383 H   0  0  0  0  0  0  0  0  0  0  0  0
    7.7691    0.1050    0.4480 H   0  0  0  0  0  0  0  0  0  0  0  0
  1 10  1  0  0  0  0
  1 11  1  0  0  0  0
  2 17  1  0  0  0  0
  2 24  1  0  0  0  0
  3 14  1  0  0  0  0
  3 31  1  0  0  0  0
  4 21  1  0  0  0  0
  4 25  1  0  0  0  0
  5 22  1  0  0  0  0
  5 26  1  0  0  0  0
  6 13  2  0  0  0  0
  7 20  1  0  0  0  0
  7 32  1  0  0  0  0
  8 23  1  0  0  0  0
  8 33  1  0  0  0  0
  9 10  2  0  0  0  0
  9 13  1  0  0  0  0
  9 14  1  0  0  0  0
 10 16  1  0  0  0  0
 11 12  1  0  0  0  0
 11 15  2  0  0  0  0
 12 18  1  0  0  0  0
 12 19  2  0  0  0  0
 13 15  1  0  0  0  0
 14 17  2  0  0  0  0
 15 27  1  0  0  0  0
 16 20  2  0  0  0  0
 16 28  1  0  0  0  0
 17 20  1  0  0  0  0
 18 21  2  0  0  0  0
 18 29  1  0  0  0  0
 19 23  1  0  0  0  0
 19 30  1  0  0  0  0
 21 22  1  0  0  0  0
 22 23  2  0  0  0  0
 24 34  1  0  0  0  0
 24 35  1  0  0  0  0
 24 36  1  0  0  0  0
 25 37  1  0  0  0  0
 25 38  1  0  0  0  0
 25 39  1  0  0  0  0
 26 40  1  0  0  0  0
 26 41  1  0  0  0  0
 26 42  1  0  0  0  0
M  END
> <PUBCHEM_COMPOUND_CID>
5496475

> <PUBCHEM_CONFORMER_RMSD>
0.8

> <PUBCHEM_CONFORMER_DIVERSEORDER>
2
5
8
7
1
6
4
9
3

> <PUBCHEM_MMFF94_PARTIAL_CHARGES>
33
1 -0.16
10 0.08
11 0.05
12 0.03
13 0.47
14 0.08
15 -0.14
16 -0.15
17 0.08
18 -0.15
19 -0.15
2 -0.36
20 0.08
21 0.08
22 0.08
23 0.08
24 0.28
25 0.28
26 0.28
27 0.15
28 0.15
29 0.15
3 -0.53
30 0.15
31 0.45
32 0.45
33 0.45
4 -0.36
5 -0.36
6 -0.57
7 -0.53
8 -0.53
9 0.09

> <PUBCHEM_EFFECTIVE_ROTOR_COUNT>
4

> <PUBCHEM_PHARMACOPHORE_FEATURES>
11
1 1 acceptor
1 2 acceptor
1 3 donor
1 4 acceptor
1 5 acceptor
1 6 acceptor
1 7 donor
1 8 donor
6 1 9 10 11 13 15 rings
6 12 18 19 21 22 23 rings
6 9 10 14 16 17 20 rings

> <PUBCHEM_HEAVY_ATOM_COUNT>
26

> <PUBCHEM_ATOM_DEF_STEREO_COUNT>
0

> <PUBCHEM_ATOM_UDEF_STEREO_COUNT>
0

> <PUBCHEM_BOND_DEF_STEREO_COUNT>
0

> <PUBCHEM_BOND_UDEF_STEREO_COUNT>
0

> <PUBCHEM_ISOTOPIC_ATOM_COUNT>
0

> <PUBCHEM_COMPONENT_COUNT>
1

> <PUBCHEM_CACTVS_TAUTO_COUNT>
36

> <PUBCHEM_CONFORMER_ID>
0053DE9B00000002

> <PUBCHEM_MMFF94_ENERGY>
109.3228

> <PUBCHEM_FEATURE_SELFOVERLAP>
55.856

> <PUBCHEM_SHAPE_FINGERPRINT>
10 15 18339352059671189952
10319926 262 18335971065320128824
10411042 1 17830743415227127019
11045977 3 18410012177728071320
11089746 13 18410005550793987110
11405975 8 18335419106114157962
11578080 2 16700311239248220210
11595378 159 16950551165030352404
12236239 1 16950285130661309926
12390115 104 18268160768763029833
12403259 415 18261390014655590037
12596602 18 15285653121879312692
13402501 40 18410855456097406380
15042514 8 18116724104788744203
15183329 4 18408889503779530906
15196674 1 18410013273087013667
15961568 22 17823139093766542668
17349148 13 15267348400981848054
17844677 252 18341901796084930201
200 152 17418093191589733523
20645477 56 18334859428556615683
20645477 70 17703235010026266806
21033648 29 18334285453486144113
21033650 10 14044926809459547434
21065198 57 18410577322779032978
21133410 127 17898000476293493701
21279426 13 18194967344215100014
21315763 129 18411136978476590618
21315764 268 18334851723285501853
21421861 104 17532360977790663722
21792961 116 18340223912362707254
21859007 373 17823397328215849780
221357 26 18343019965087550292
23227448 37 18340485681069134071
23402539 116 18408881867301473975
23559900 14 18412543236489299008
2838139 119 18412257337954983205
3004659 81 18189060811682133070
335352 9 18411419519027112668
34797466 226 17917437531247232005
350125 39 18409169935084482820
3545911 37 18411420609426708996
4015057 19 18271798073186058305
4073 2 18187370969230567962
4214541 1 18409732863204215600
495365 180 17846208986683945930
5104073 3 18408608066993238115
5283173 99 18410575071862846121
59755656 215 18410014308606889254
59755656 520 18040709281896546643
9709674 26 18411705425714214486
9995097 60 18342457067179736050

> <PUBCHEM_SHAPE_MULTIPOLES>
488.11
15.26
2.8
0.83
1.22
0.83
-0.04
2.78
-1.49
0.37
0.42
0.09
-0.1
1.8

> <PUBCHEM_SHAPE_SELFOVERLAP>
1074.873

> <PUBCHEM_SHAPE_VOLUME>
263.5

> <PUBCHEM_COORDINATE_TYPE>
2
5
10

$$$$
