98912
  -OEChem-09042001183D

 27 30  0     0  0  0  0  0  0999 V2000
   -1.3785   -1.7524   -0.0015 N   0  0  0  0  0  0  0  0  0  0  0  0
    0.6184    1.1470   -0.0018 N   0  0  0  0  0  0  0  0  0  0  0  0
   -0.1544   -1.1340   -0.0010 C   0  0  0  0  0  0  0  0  0  0  0  0
   -0.3832    0.2343   -0.0013 C   0  0  0  0  0  0  0  0  0  0  0  0
   -1.7912    0.4438   -0.0007 C   0  0  0  0  0  0  0  0  0  0  0  0
   -2.3903   -0.8178   -0.0002 C   0  0  0  0  0  0  0  0  0  0  0  0
    1.1397   -1.6439   -0.0006 C   0  0  0  0  0  0  0  0  0  0  0  0
    2.1823   -0.7089    0.0002 C   0  0  0  0  0  0  0  0  0  0  0  0
    1.8710    0.6703   -0.0008 C   0  0  0  0  0  0  0  0  0  0  0  0
   -2.6171    1.5861    0.0000 C   0  0  0  0  0  0  0  0  0  0  0  0
   -3.7788   -0.9938    0.0010 C   0  0  0  0  0  0  0  0  0  0  0  0
    3.5213   -1.1327    0.0016 C   0  0  0  0  0  0  0  0  0  0  0  0
   -4.0071    1.4248    0.0013 C   0  0  0  0  0  0  0  0  0  0  0  0
    2.9279    1.5747   -0.0009 C   0  0  0  0  0  0  0  0  0  0  0  0
   -4.5770    0.1535    0.0019 C   0  0  0  0  0  0  0  0  0  0  0  0
    4.5573   -0.2035    0.0023 C   0  0  0  0  0  0  0  0  0  0  0  0
    4.2597    1.1524    0.0007 C   0  0  0  0  0  0  0  0  0  0  0  0
   -1.5203   -2.7531   -0.0017 H   0  0  0  0  0  0  0  0  0  0  0  0
    1.3216   -2.7137   -0.0003 H   0  0  0  0  0  0  0  0  0  0  0  0
   -2.1866    2.5835   -0.0003 H   0  0  0  0  0  0  0  0  0  0  0  0
   -4.2237   -1.9832    0.0013 H   0  0  0  0  0  0  0  0  0  0  0  0
    3.7673   -2.1925    0.0024 H   0  0  0  0  0  0  0  0  0  0  0  0
    2.7247    2.6445   -0.0019 H   0  0  0  0  0  0  0  0  0  0  0  0
   -4.6482    2.3023    0.0021 H   0  0  0  0  0  0  0  0  0  0  0  0
   -5.6592    0.0508    0.0028 H   0  0  0  0  0  0  0  0  0  0  0  0
    5.5904   -0.5371    0.0035 H   0  0  0  0  0  0  0  0  0  0  0  0
    5.0606    1.8859    0.0008 H   0  0  0  0  0  0  0  0  0  0  0  0
  1  3  1  0  0  0  0
  1  6  1  0  0  0  0
  1 18  1  0  0  0  0
  2  4  2  0  0  0  0
  2  9  1  0  0  0  0
  3  4  1  0  0  0  0
  3  7  2  0  0  0  0
  4  5  1  0  0  0  0
  5  6  1  0  0  0  0
  5 10  2  0  0  0  0
  6 11  2  0  0  0  0
  7  8  1  0  0  0  0
  7 19  1  0  0  0  0
  8  9  1  0  0  0  0
  8 12  2  0  0  0  0
  9 14  2  0  0  0  0
 10 13  1  0  0  0  0
 10 20  1  0  0  0  0
 11 15  1  0  0  0  0
 11 21  1  0  0  0  0
 12 16  1  0  0  0  0
 12 22  1  0  0  0  0
 13 15  2  0  0  0  0
 13 24  1  0  0  0  0
 14 17  1  0  0  0  0
 14 23  1  0  0  0  0
 15 25  1  0  0  0  0
 16 17  2  0  0  0  0
 16 26  1  0  0  0  0
 17 27  1  0  0  0  0
M  END
> <PUBCHEM_COMPOUND_CID>
98912

> <PUBCHEM_CONFORMER_RMSD>
0.4

> <PUBCHEM_CONFORMER_DIVERSEORDER>
1

> <PUBCHEM_MMFF94_PARTIAL_CHARGES>
25
1 0.03
10 -0.15
11 -0.15
12 -0.15
13 -0.15
14 -0.15
15 -0.15
16 -0.15
17 -0.15
18 0.27
19 0.15
2 -0.57
20 0.15
21 0.15
22 0.15
23 0.15
24 0.15
25 0.15
26 0.15
27 0.15
3 -0.15
4 0.26
6 -0.15
7 -0.15
9 0.31

> <PUBCHEM_EFFECTIVE_ROTOR_COUNT>
0

> <PUBCHEM_PHARMACOPHORE_FEATURES>
7
1 1 cation
1 1 donor
1 2 acceptor
5 1 3 4 5 6 rings
6 2 3 4 7 8 9 rings
6 5 6 10 11 13 15 rings
6 8 9 12 14 16 17 rings

> <PUBCHEM_HEAVY_ATOM_COUNT>
17

> <PUBCHEM_ATOM_DEF_STEREO_COUNT>
0

> <PUBCHEM_ATOM_UDEF_STEREO_COUNT>
0

> <PUBCHEM_BOND_DEF_STEREO_COUNT>
0

> <PUBCHEM_BOND_UDEF_STEREO_COUNT>
0

> <PUBCHEM_ISOTOPIC_ATOM_COUNT>
0

> <PUBCHEM_COMPONENT_COUNT>
1

> <PUBCHEM_CACTVS_TAUTO_COUNT>
2

> <PUBCHEM_CONFORMER_ID>
0001826000000001

> <PUBCHEM_MMFF94_ENERGY>
44.1246

> <PUBCHEM_FEATURE_SELFOVERLAP>
35.755

> <PUBCHEM_SHAPE_FINGERPRINT>
10062212 137 18341321236744470223
10411042 1 16608854086079558530
10608611 8 18410853269700381928
10616163 171 18340488970872314007
10646746 165 18411138021926933156
10967382 1 18410575050377193572
11132069 177 18410289215966609472
11471102 20 18411417298049050406
12107183 9 17761208812993321481
12403259 415 18411132537074841713
13380535 76 18410857659204554647
13675066 3 18408888463980558026
14415576 193 18410858754631854628
14897335 6 18411698789841665798
15196674 1 18410856559639789568
15442244 35 18194964032958968274
15536298 74 18341895182093406398
16945 1 18266458904476300839
17802600 8 18410569587147358921
18186145 218 18259981548559861806
18522853 276 18413388734960924753
200 152 17988920081130892743
20510252 161 18343304747436862617
20645477 70 18343022151384263758
21267235 1 18410865355738430827
21652331 79 18409166614837451109
23402539 116 18272362079648394797
23402655 69 18343300353331767325
23463225 33 18408040706393161588
23559900 14 18271525291497435278
3004659 81 18261963943268165014
335352 9 18266740186543447998
3545911 37 18411140233639794781
4214541 1 18410856546902821089
474 4 17386573612485141348
495365 180 17417518207733872760
4990 188 18060146422760967580
5104073 3 18410012134725508819
69090 78 18342453759559325279
7364860 26 18268430135905290038
77779 3 18410294709198009024
9709674 26 18412269445025023198
9981440 41 17252869863063737248

> <PUBCHEM_SHAPE_MULTIPOLES>
339.89
8.99
1.81
0.61
0.05
0.01
0
1.77
0.01
-0.03
0
0
0
0

> <PUBCHEM_SHAPE_SELFOVERLAP>
788.389

> <PUBCHEM_SHAPE_VOLUME>
174.9

> <PUBCHEM_COORDINATE_TYPE>
2
5
10

$$$$
