129686415
  -OEChem-09042001193D

 26 29  0     0  0  0  0  0  0999 V2000
    3.8038    1.9868   -0.0020 O   0  0  0  0  0  0  0  0  0  0  0  0
   -1.4191    1.7841    0.0017 N   0  0  0  0  0  0  0  0  0  0  0  0
    0.2335   -1.3311    0.0008 N   0  0  0  0  0  0  0  0  0  0  0  0
   -0.6435   -0.3904    0.0008 C   0  0  0  0  0  0  0  0  0  0  0  0
   -2.0812   -0.4726    0.0003 C   0  0  0  0  0  0  0  0  0  0  0  0
   -0.3382    1.0689    0.0011 C   0  0  0  0  0  0  0  0  0  0  0  0
   -2.4932    0.8624    0.0010 C   0  0  0  0  0  0  0  0  0  0  0  0
    1.9454    0.4578    0.0001 C   0  0  0  0  0  0  0  0  0  0  0  0
    1.5627   -0.9595    0.0009 C   0  0  0  0  0  0  0  0  0  0  0  0
    1.0634    1.4684    0.0004 C   0  0  0  0  0  0  0  0  0  0  0  0
   -2.9456   -1.5447   -0.0012 C   0  0  0  0  0  0  0  0  0  0  0  0
   -3.8446    1.1569    0.0003 C   0  0  0  0  0  0  0  0  0  0  0  0
    3.4000    0.8290   -0.0012 C   0  0  0  0  0  0  0  0  0  0  0  0
    2.5249   -1.8987    0.0015 C   0  0  0  0  0  0  0  0  0  0  0  0
   -4.3079   -1.2455   -0.0019 C   0  0  0  0  0  0  0  0  0  0  0  0
   -4.7538    0.0912   -0.0014 C   0  0  0  0  0  0  0  0  0  0  0  0
    4.3664   -0.2999   -0.0015 C   0  0  0  0  0  0  0  0  0  0  0  0
    3.9271   -1.5634    0.0003 C   0  0  0  0  0  0  0  0  0  0  0  0
    1.3161    2.5200   -0.0001 H   0  0  0  0  0  0  0  0  0  0  0  0
   -2.5946   -2.5692   -0.0019 H   0  0  0  0  0  0  0  0  0  0  0  0
   -4.1983    2.1822    0.0006 H   0  0  0  0  0  0  0  0  0  0  0  0
    2.2738   -2.9553    0.0022 H   0  0  0  0  0  0  0  0  0  0  0  0
   -5.0370   -2.0515   -0.0031 H   0  0  0  0  0  0  0  0  0  0  0  0
   -5.8212    0.2971   -0.0021 H   0  0  0  0  0  0  0  0  0  0  0  0
    5.4248   -0.0670   -0.0026 H   0  0  0  0  0  0  0  0  0  0  0  0
    4.6350   -2.3859    0.0003 H   0  0  0  0  0  0  0  0  0  0  0  0
  1 13  2  0  0  0  0
  2  6  2  0  0  0  0
  2  7  1  0  0  0  0
  3  4  2  0  0  0  0
  3  9  1  0  0  0  0
  4  5  1  0  0  0  0
  4  6  1  0  0  0  0
  5  7  1  0  0  0  0
  5 11  2  0  0  0  0
  6 10  1  0  0  0  0
  7 12  2  0  0  0  0
  8  9  1  0  0  0  0
  8 10  2  0  0  0  0
  8 13  1  0  0  0  0
  9 14  2  0  0  0  0
 10 19  1  0  0  0  0
 11 15  1  0  0  0  0
 11 20  1  0  0  0  0
 12 16  1  0  0  0  0
 12 21  1  0  0  0  0
 13 17  1  0  0  0  0
 14 18  1  0  0  0  0
 14 22  1  0  0  0  0
 15 16  2  0  0  0  0
 15 23  1  0  0  0  0
 16 24  1  0  0  0  0
 17 18  2  0  0  0  0
 17 25  1  0  0  0  0
 18 26  1  0  0  0  0
M  END
> <PUBCHEM_COMPOUND_CID>
129686415

> <PUBCHEM_CONFORMER_RMSD>
0.4

> <PUBCHEM_CONFORMER_DIVERSEORDER>
1

> <PUBCHEM_MMFF94_PARTIAL_CHARGES>
26
1 -0.57
10 -0.14
11 -0.15
12 -0.15
13 0.54
14 -0.15
15 -0.15
16 -0.15
17 -0.14
18 -0.15
19 0.15
2 -0.63
20 0.15
21 0.15
22 0.15
23 0.15
24 0.15
25 0.15
26 0.15
3 -0.62
4 0.36
5 0.09
6 0.44
7 0.18
8 0.01
9 0.17

> <PUBCHEM_EFFECTIVE_ROTOR_COUNT>
0

> <PUBCHEM_PHARMACOPHORE_FEATURES>
7
1 1 acceptor
1 2 acceptor
1 3 acceptor
5 2 4 5 6 7 rings
6 3 4 6 8 9 10 rings
6 5 7 11 12 15 16 rings
6 8 9 13 14 17 18 rings

> <PUBCHEM_HEAVY_ATOM_COUNT>
18

> <PUBCHEM_ATOM_DEF_STEREO_COUNT>
0

> <PUBCHEM_ATOM_UDEF_STEREO_COUNT>
0

> <PUBCHEM_BOND_DEF_STEREO_COUNT>
0

> <PUBCHEM_BOND_UDEF_STEREO_COUNT>
0

> <PUBCHEM_ISOTOPIC_ATOM_COUNT>
0

> <PUBCHEM_COMPONENT_COUNT>
1

> <PUBCHEM_CACTVS_TAUTO_COUNT>
1

> <PUBCHEM_CONFORMER_ID>
07BADB8F00000001

> <PUBCHEM_MMFF94_ENERGY>
58.1938

> <PUBCHEM_FEATURE_SELFOVERLAP>
35.78

> <PUBCHEM_SHAPE_FINGERPRINT>
10062212 137 18412537713172172015
10608611 8 18409444760993019780
10616163 171 18413109484925460255
10967382 1 18410575123360002086
11132069 177 18410569582809992400
11471102 20 18410571794929191812
11806522 49 18408885156808377671
12032990 46 18410858745783476462
12107183 9 17764030159877609001
13140716 1 18339080376169900474
13167823 11 18412261735669217239
13675066 3 18113904866263341593
15196674 1 18410573993783590247
15375358 24 18333449871718990915
15442244 35 18267023851800401064
15536298 74 18413670214443430242
16945 1 18266741461790018848
17492 89 18410856538245074779
17804303 29 18413672396292247273
1813 80 17240204335082314269
18186145 218 17821443547529250839
18522853 276 18341611499218623608
19050596 39 18410292493116346586
19141452 34 18413672418305244999
200 152 18130784560204045135
20645477 70 18341895173287519078
21267235 1 18411146817840867063
21452121 103 18270952540539252376
221490 88 18336272326615325850
23402539 116 18411411808743470030
23463225 33 18410293601149226780
23559900 14 18268424642663068018
2871803 45 18334009480082432143
335352 9 18266741277327900181
34934 24 18411975897111027503
350125 39 18410573977289815604
3545911 37 18409450284315382381
4214541 1 18410573942523810881
474 4 17676775387183827692
4921388 177 16226061023781086331
4990 188 18059585676204942396
5104073 3 18410856559782221841
633830 44 17167866356841733613
69090 78 18412823581837116495
7364860 26 18413388765516436072
77779 3 18411139130023136243
8809292 202 18261116283362463267
9709674 26 18410299098702675446
9981440 41 17470448903211256960

> <PUBCHEM_SHAPE_MULTIPOLES>
354.6
9.15
2.01
0.6
1.48
0.04
0
-1.01
0.01
-0.69
0
0.01
-0.01
0

> <PUBCHEM_SHAPE_SELFOVERLAP>
817.023

> <PUBCHEM_SHAPE_VOLUME>
181.1

> <PUBCHEM_COORDINATE_TYPE>
2
5
10

$$$$
