10538510
  -OEChem-09042002153D

 31 34  0     0  0  0  0  0  0999 V2000
    1.4134    2.5345   -0.2995 O   0  0  0  0  0  0  0  0  0  0  0  0
   -1.4018    1.4814   -0.1824 N   0  0  0  0  0  0  0  0  0  0  0  0
    0.4043   -1.5292    0.0776 N   0  0  0  0  0  0  0  0  0  0  0  0
   -0.2201    0.7876   -0.1282 C   0  0  0  0  0  0  0  0  0  0  0  0
   -0.5364   -0.5574   -0.0037 C   0  0  0  0  0  0  0  0  0  0  0  0
   -1.9550   -0.6744    0.0176 C   0  0  0  0  0  0  0  0  0  0  0  0
   -2.4716    0.6182   -0.0962 C   0  0  0  0  0  0  0  0  0  0  0  0
    1.1041    1.2105   -0.1761 C   0  0  0  0  0  0  0  0  0  0  0  0
    2.0844    0.2138   -0.0926 C   0  0  0  0  0  0  0  0  0  0  0  0
    1.6849   -1.1366    0.0328 C   0  0  0  0  0  0  0  0  0  0  0  0
   -2.8526   -1.7562    0.1228 C   0  0  0  0  0  0  0  0  0  0  0  0
   -3.8458    0.8830   -0.1098 C   0  0  0  0  0  0  0  0  0  0  0  0
    3.4478    0.5483   -0.1329 C   0  0  0  0  0  0  0  0  0  0  0  0
    2.6815   -2.1038    0.1131 C   0  0  0  0  0  0  0  0  0  0  0  0
   -4.2295   -1.5058    0.1102 C   0  0  0  0  0  0  0  0  0  0  0  0
   -4.7163   -0.2055   -0.0044 C   0  0  0  0  0  0  0  0  0  0  0  0
    4.4219   -0.4421   -0.0505 C   0  0  0  0  0  0  0  0  0  0  0  0
    4.0377   -1.7704    0.0727 C   0  0  0  0  0  0  0  0  0  0  0  0
    0.9492    3.4042    0.7295 C   0  0  0  0  0  0  0  0  0  0  0  0
   -1.4868    2.4822   -0.2876 H   0  0  0  0  0  0  0  0  0  0  0  0
   -2.4873   -2.7752    0.2128 H   0  0  0  0  0  0  0  0  0  0  0  0
   -4.2261    1.8951   -0.1989 H   0  0  0  0  0  0  0  0  0  0  0  0
    3.7727    1.5819   -0.2287 H   0  0  0  0  0  0  0  0  0  0  0  0
    2.4099   -3.1539    0.2103 H   0  0  0  0  0  0  0  0  0  0  0  0
   -4.9257   -2.3364    0.1910 H   0  0  0  0  0  0  0  0  0  0  0  0
   -5.7896   -0.0333   -0.0119 H   0  0  0  0  0  0  0  0  0  0  0  0
    5.4743   -0.1776   -0.0823 H   0  0  0  0  0  0  0  0  0  0  0  0
    4.7897   -2.5512    0.1377 H   0  0  0  0  0  0  0  0  0  0  0  0
    1.7124    4.1712    0.8917 H   0  0  0  0  0  0  0  0  0  0  0  0
    0.7869    2.8794    1.6776 H   0  0  0  0  0  0  0  0  0  0  0  0
    0.0314    3.9041    0.4095 H   0  0  0  0  0  0  0  0  0  0  0  0
  1  8  1  0  0  0  0
  1 19  1  0  0  0  0
  2  4  1  0  0  0  0
  2  7  1  0  0  0  0
  2 20  1  0  0  0  0
  3  5  2  0  0  0  0
  3 10  1  0  0  0  0
  4  5  1  0  0  0  0
  4  8  2  0  0  0  0
  5  6  1  0  0  0  0
  6  7  1  0  0  0  0
  6 11  2  0  0  0  0
  7 12  2  0  0  0  0
  8  9  1  0  0  0  0
  9 10  1  0  0  0  0
  9 13  2  0  0  0  0
 10 14  2  0  0  0  0
 11 15  1  0  0  0  0
 11 21  1  0  0  0  0
 12 16  1  0  0  0  0
 12 22  1  0  0  0  0
 13 17  1  0  0  0  0
 13 23  1  0  0  0  0
 14 18  1  0  0  0  0
 14 24  1  0  0  0  0
 15 16  2  0  0  0  0
 15 25  1  0  0  0  0
 16 26  1  0  0  0  0
 17 18  2  0  0  0  0
 17 27  1  0  0  0  0
 18 28  1  0  0  0  0
 19 29  1  0  0  0  0
 19 30  1  0  0  0  0
 19 31  1  0  0  0  0
M  END
> <PUBCHEM_COMPOUND_CID>
10538510

> <PUBCHEM_CONFORMER_RMSD>
0.6

> <PUBCHEM_CONFORMER_DIVERSEORDER>
1

> <PUBCHEM_MMFF94_PARTIAL_CHARGES>
26
1 -0.36
10 0.31
11 -0.15
12 -0.15
13 -0.15
14 -0.15
15 -0.15
16 -0.15
17 -0.15
18 -0.15
19 0.28
2 0.03
20 0.27
21 0.15
22 0.15
23 0.15
24 0.15
25 0.15
26 0.15
27 0.15
28 0.15
3 -0.57
4 -0.15
5 0.26
7 -0.15
8 0.08

> <PUBCHEM_EFFECTIVE_ROTOR_COUNT>
1

> <PUBCHEM_PHARMACOPHORE_FEATURES>
8
1 1 acceptor
1 2 cation
1 2 donor
1 3 acceptor
5 2 4 5 6 7 rings
6 3 4 5 8 9 10 rings
6 6 7 11 12 15 16 rings
6 9 10 13 14 17 18 rings

> <PUBCHEM_HEAVY_ATOM_COUNT>
19

> <PUBCHEM_ATOM_DEF_STEREO_COUNT>
0

> <PUBCHEM_ATOM_UDEF_STEREO_COUNT>
0

> <PUBCHEM_BOND_DEF_STEREO_COUNT>
0

> <PUBCHEM_BOND_UDEF_STEREO_COUNT>
0

> <PUBCHEM_ISOTOPIC_ATOM_COUNT>
0

> <PUBCHEM_COMPONENT_COUNT>
1

> <PUBCHEM_CACTVS_TAUTO_COUNT>
2

> <PUBCHEM_CONFORMER_ID>
00A0CE0E00000001

> <PUBCHEM_MMFF94_ENERGY>
60.23

> <PUBCHEM_FEATURE_SELFOVERLAP>
40.828

> <PUBCHEM_SHAPE_FINGERPRINT>
10608611 8 18336542815609044669
10616163 171 18339928245975826071
10967382 1 18410293644267730694
11471102 20 18409445912007039631
116883 192 18054233120378022614
11806522 49 18408041827089689918
12032990 46 18411140195338705438
12403259 226 18408598189017135277
12553582 1 18411691067622719758
13140716 1 17905602555816357410
138480 1 18338797917693911496
13862211 1 18409725145132647594
14115302 16 17676780832748801687
14252887 29 17989213616328583830
14787075 74 18260832622442220218
14790565 3 17759813928039286164
14866123 147 17404305092386538242
15196674 1 18409449176182314390
15442244 35 18411421678878950945
15536298 74 18341612654575382128
16945 1 18339072808448074126
17492 89 18266457801013389655
17804303 29 18409171017278929069
18186145 218 17603576465785029887
200 152 18201996638569652007
20510252 161 18125437510504100256
20645477 70 18263357152526435103
21029758 11 18411696556596049289
21250096 35 18411416185457504266
21267235 1 18410020905107255246
221490 88 18263369251201433651
2255824 54 18264774448605237116
2297311 6 18270409270205206382
2334 1 18410011014050474862
23366157 5 17969499488585306244
23402539 116 18271235024063085574
23463225 33 18409450271446395774
23557571 272 18199473156278187550
23559900 14 18411974793067042761
2748010 2 18339633443799199414
2871803 45 18260263023320658254
3004659 81 18041562438890622358
3091708 16 9067678459074315168
3286 77 18335700589274627805
335352 9 18337953381610932349
34934 24 18338228280533958350
350125 39 18409453579362770657
3886686 26 16821331920766016834
4214541 1 18409167671562630959
4921388 177 15792308080364520075
5104073 3 18410293601270650843
537710 114 18335989709620296276
7364860 26 18340767173231326232
81228 2 17977963288682992552
84936 182 17913210046530654057
8809292 202 18187369848022576955
9709674 26 18263647423554255827
9981440 41 17474099281583163641

> <PUBCHEM_SHAPE_MULTIPOLES>
375.18
8.32
2.71
0.64
2.77
1.79
-0.02
-3.57
0.04
-1.22
-0.41
-0.03
0.09
0.1

> <PUBCHEM_SHAPE_SELFOVERLAP>
861.39

> <PUBCHEM_SHAPE_VOLUME>
195.1

> <PUBCHEM_COORDINATE_TYPE>
2
5
10

$$$$
