72610
  -OEChem-09042001433D

 26 28  0     1  0  0  0  0  0999 V2000
   -2.9924    1.4029   -1.0209 O   0  0  0  0  0  0  0  0  0  0  0  0
   -1.1896   -0.9247    0.0374 N   0  0  0  0  0  0  0  0  0  0  0  0
   -0.2098    1.2541    0.2107 N   0  0  0  0  0  0  0  0  0  0  0  0
   -2.5065   -1.5154   -0.0290 C   0  0  0  0  0  0  0  0  0  0  0  0
   -3.3791   -0.4041    0.5780 C   0  0  0  0  0  0  0  0  0  0  0  0
   -2.6467    0.9106    0.2582 C   0  0  1  0  0  0  0  0  0  0  0  0
   -1.2162    0.4410    0.1742 C   0  0  0  0  0  0  0  0  0  0  0  0
    0.0257   -1.6670   -0.1892 C   0  0  0  0  0  0  0  0  0  0  0  0
    1.2259   -0.7493   -0.0858 C   0  0  0  0  0  0  0  0  0  0  0  0
    1.0633    0.6443    0.1019 C   0  0  0  0  0  0  0  0  0  0  0  0
    2.5142   -1.2910   -0.1909 C   0  0  0  0  0  0  0  0  0  0  0  0
    2.1997    1.4578    0.1827 C   0  0  0  0  0  0  0  0  0  0  0  0
    3.6342   -0.4654   -0.1068 C   0  0  0  0  0  0  0  0  0  0  0  0
    3.4773    0.9061    0.0796 C   0  0  0  0  0  0  0  0  0  0  0  0
   -2.5796   -2.4427    0.5469 H   0  0  0  0  0  0  0  0  0  0  0  0
   -2.7848   -1.7102   -1.0701 H   0  0  0  0  0  0  0  0  0  0  0  0
   -4.3986   -0.4355    0.1821 H   0  0  0  0  0  0  0  0  0  0  0  0
   -3.4208   -0.5393    1.6660 H   0  0  0  0  0  0  0  0  0  0  0  0
   -2.7907    1.6851    1.0146 H   0  0  0  0  0  0  0  0  0  0  0  0
    0.0030   -2.1159   -1.1887 H   0  0  0  0  0  0  0  0  0  0  0  0
    0.1119   -2.4652    0.5565 H   0  0  0  0  0  0  0  0  0  0  0  0
    2.6494   -2.3595   -0.3389 H   0  0  0  0  0  0  0  0  0  0  0  0
   -2.9946    0.6617   -1.6502 H   0  0  0  0  0  0  0  0  0  0  0  0
    2.0954    2.5306    0.3270 H   0  0  0  0  0  0  0  0  0  0  0  0
    4.6298   -0.8918   -0.1881 H   0  0  0  0  0  0  0  0  0  0  0  0
    4.3512    1.5481    0.1441 H   0  0  0  0  0  0  0  0  0  0  0  0
  1  6  1  0  0  0  0
  1 23  1  0  0  0  0
  2  4  1  0  0  0  0
  2  7  1  0  0  0  0
  2  8  1  0  0  0  0
  3  7  2  0  0  0  0
  3 10  1  0  0  0  0
  4  5  1  0  0  0  0
  4 15  1  0  0  0  0
  4 16  1  0  0  0  0
  5  6  1  0  0  0  0
  5 17  1  0  0  0  0
  5 18  1  0  0  0  0
  6  7  1  0  0  0  0
  6 19  1  0  0  0  0
  8  9  1  0  0  0  0
  8 20  1  0  0  0  0
  8 21  1  0  0  0  0
  9 10  1  0  0  0  0
  9 11  2  0  0  0  0
 10 12  2  0  0  0  0
 11 13  1  0  0  0  0
 11 22  1  0  0  0  0
 12 14  1  0  0  0  0
 12 24  1  0  0  0  0
 13 14  2  0  0  0  0
 13 25  1  0  0  0  0
 14 26  1  0  0  0  0
M  END
> <PUBCHEM_COMPOUND_CID>
72610

> <PUBCHEM_CONFORMER_RMSD>
0.4

> <PUBCHEM_CONFORMER_DIVERSEORDER>
1
2

> <PUBCHEM_MMFF94_PARTIAL_CHARGES>
18
1 -0.68
10 0.18
11 -0.15
12 -0.15
13 -0.15
14 -0.15
2 -0.79
22 0.15
23 0.4
24 0.15
25 0.15
26 0.15
3 -0.63
4 0.37
6 0.34
7 0.44
8 0.51
9 -0.14

> <PUBCHEM_EFFECTIVE_ROTOR_COUNT>
0.8

> <PUBCHEM_PHARMACOPHORE_FEATURES>
6
1 1 acceptor
1 1 donor
3 2 3 7 cation
5 2 4 5 6 7 rings
6 2 3 7 8 9 10 rings
6 9 10 11 12 13 14 rings

> <PUBCHEM_HEAVY_ATOM_COUNT>
14

> <PUBCHEM_ATOM_DEF_STEREO_COUNT>
0

> <PUBCHEM_ATOM_UDEF_STEREO_COUNT>
1

> <PUBCHEM_BOND_DEF_STEREO_COUNT>
0

> <PUBCHEM_BOND_UDEF_STEREO_COUNT>
0

> <PUBCHEM_ISOTOPIC_ATOM_COUNT>
0

> <PUBCHEM_COMPONENT_COUNT>
1

> <PUBCHEM_CACTVS_TAUTO_COUNT>
4

> <PUBCHEM_CONFORMER_ID>
00011BA200000001

> <PUBCHEM_MMFF94_ENERGY>
36.4049

> <PUBCHEM_FEATURE_SELFOVERLAP>
30.576

> <PUBCHEM_SHAPE_FINGERPRINT>
10608611 8 18410290324110636112
10922523 26 18408324380113572628
10967382 1 18412547595812662410
11132069 177 18342451547883049082
11471102 20 18413387622543153100
12032990 46 18411991260108928906
12932764 1 17895193268466182746
13296908 3 18410577275217823170
13380535 76 18412825780670571894
13897977 150 18412543193302288013
14144814 61 18413110554392779368
14325111 11 18411702101435628296
14790565 3 15452010687825335947
15196674 1 18412265046983241082
15219456 202 18410575071778196525
15309172 13 18272662254749415587
15442244 35 18268714896542109514
15536298 74 18272936037845536578
15775835 57 18341338871874536138
16945 1 18268995280259412794
17844478 74 18187374250358332249
18186145 218 18343309145382945180
193761 8 17403461775779222130
200 152 17917703630826403335
20201158 50 18341895151791394894
20645477 70 18271523096183591463
21267235 1 18340217352903368370
21501502 16 18340488970877055886
2334 1 18339642346891909450
23402539 116 18131344206916198372
23402655 69 18270104714058494381
23463225 33 18410013243122462858
23559900 14 18342739564744142222
25 1 18120646938458028677
2748010 2 18412265051246533910
5104073 3 18411983567885708826
528886 8 18413385427941536986
53812653 166 18272650190365395544
63268167 104 18342179951114822066
6333449 129 18412261739990252935
69090 78 18343299288596765119
7364860 26 18270684147737889510
8809292 202 18334866042680047546
9709674 26 18340493351854961438

> <PUBCHEM_SHAPE_MULTIPOLES>
272.28
6.09
1.75
0.7
0.48
0.14
0.04
-0.47
-0.02
-0.09
0.12
-0.25
-0.08
0.36

> <PUBCHEM_SHAPE_SELFOVERLAP>
596.848

> <PUBCHEM_SHAPE_VOLUME>
148.5

> <PUBCHEM_COORDINATE_TYPE>
2
5
10

$$$$
