14485465
  -OEChem-09042002412D

 79 83  0     1  0  0  0  0  0999 V2000
    2.0000   -2.6574    0.0000 O   0  0  0  0  0  0  0  0  0  0  0  0
    6.5271   -1.1050    0.0000 C   0  0  3  0  0  0  0  0  0  0  0  0
    7.3931   -0.6051    0.0000 C   0  0  3  0  0  0  0  0  0  0  0  0
    5.6610   -0.6051    0.0000 C   0  0  3  0  0  0  0  0  0  0  0  0
    7.3931    0.3949    0.0000 C   0  0  3  0  0  0  0  0  0  0  0  0
    4.7510   -1.1119    0.0000 C   0  0  3  0  0  0  0  0  0  0  0  0
    8.2870    0.9296    0.0000 C   0  0  3  0  0  0  0  0  0  0  0  0
    4.7430   -2.1535    0.0000 C   0  0  3  0  0  0  0  0  0  0  0  0
    9.1931    0.4158    0.0000 C   0  0  3  0  0  0  0  0  0  0  0  0
    6.5431   -2.1466    0.0000 C   0  0  0  0  0  0  0  0  0  0  0  0
    5.6610    0.3949    0.0000 C   0  0  0  0  0  0  0  0  0  0  0  0
    8.2870   -1.1397    0.0000 C   0  0  0  0  0  0  0  0  0  0  0  0
    6.5271    0.8949    0.0000 C   0  0  0  0  0  0  0  0  0  0  0  0
    5.6451   -2.6743    0.0000 C   0  0  0  0  0  0  0  0  0  0  0  0
    9.1931   -0.6259    0.0000 C   0  0  0  0  0  0  0  0  0  0  0  0
    7.1698   -1.8711    0.0000 C   0  0  0  0  0  0  0  0  0  0  0  0
    7.7352   -1.5447    0.0000 C   0  0  0  0  0  0  0  0  0  0  0  0
    3.8242   -0.5478    0.0000 C   0  0  0  0  0  0  0  0  0  0  0  0
    3.8076   -2.7032    0.0000 C   0  0  0  0  0  0  0  0  0  0  0  0
    8.2619    2.0143    0.0000 C   0  0  3  0  0  0  0  0  0  0  0  0
   10.1369    0.9510    0.0000 C   0  0  0  0  0  0  0  0  0  0  0  0
    4.7587   -0.1119    0.0000 C   0  0  0  0  0  0  0  0  0  0  0  0
    2.8763   -1.0758    0.0000 C   0  0  0  0  0  0  0  0  0  0  0  0
   10.0629   -0.0775    0.0000 C   0  0  0  0  0  0  0  0  0  0  0  0
    2.8680   -2.1607    0.0000 C   0  0  0  0  0  0  0  0  0  0  0  0
   10.1369    2.0360    0.0000 C   0  0  0  0  0  0  0  0  0  0  0  0
    9.1931    2.5712    0.0000 C   0  0  0  0  0  0  0  0  0  0  0  0
    3.3109   -3.5712    0.0000 C   0  0  0  0  0  0  0  0  0  0  0  0
    4.3109   -3.5673    0.0000 C   0  0  0  0  0  0  0  0  0  0  0  0
    7.3864    2.4975    0.0000 C   0  0  0  0  0  0  0  0  0  0  0  0
    9.1815    3.5712    0.0000 C   0  0  0  0  0  0  0  0  0  0  0  0
    6.1980   -0.2951    0.0000 H   0  0  0  0  0  0  0  0  0  0  0  0
    7.3883    1.0149    0.0000 H   0  0  0  0  0  0  0  0  0  0  0  0
    8.8191    1.2478    0.0000 H   0  0  0  0  0  0  0  0  0  0  0  0
    4.7454   -2.7735    0.0000 H   0  0  0  0  0  0  0  0  0  0  0  0
    6.7612   -2.7270    0.0000 H   0  0  0  0  0  0  0  0  0  0  0  0
    7.1523   -2.0311    0.0000 H   0  0  0  0  0  0  0  0  0  0  0  0
    5.4490    0.9776    0.0000 H   0  0  0  0  0  0  0  0  0  0  0  0
    5.0504    0.2873    0.0000 H   0  0  0  0  0  0  0  0  0  0  0  0
    7.8824   -1.6095    0.0000 H   0  0  0  0  0  0  0  0  0  0  0  0
    8.6806   -1.6187    0.0000 H   0  0  0  0  0  0  0  0  0  0  0  0
    6.9256    1.3699    0.0000 H   0  0  0  0  0  0  0  0  0  0  0  0
    6.1285    1.3699    0.0000 H   0  0  0  0  0  0  0  0  0  0  0  0
    5.2478   -3.1503    0.0000 H   0  0  0  0  0  0  0  0  0  0  0  0
    6.0460   -3.1472    0.0000 H   0  0  0  0  0  0  0  0  0  0  0  0
    9.4022   -1.2096    0.0000 H   0  0  0  0  0  0  0  0  0  0  0  0
    9.8040   -0.5198    0.0000 H   0  0  0  0  0  0  0  0  0  0  0  0
    6.6949   -2.2696    0.0000 H   0  0  0  0  0  0  0  0  0  0  0  0
    7.5684   -2.3460    0.0000 H   0  0  0  0  0  0  0  0  0  0  0  0
    7.6448   -1.4726    0.0000 H   0  0  0  0  0  0  0  0  0  0  0  0
    7.1526   -1.7568    0.0000 H   0  0  0  0  0  0  0  0  0  0  0  0
    7.9473   -2.1273    0.0000 H   0  0  0  0  0  0  0  0  0  0  0  0
    8.3178   -1.3326    0.0000 H   0  0  0  0  0  0  0  0  0  0  0  0
    4.2324   -0.0812    0.0000 H   0  0  0  0  0  0  0  0  0  0  0  0
    3.4343   -0.0658    0.0000 H   0  0  0  0  0  0  0  0  0  0  0  0
    7.7317    1.6930    0.0000 H   0  0  0  0  0  0  0  0  0  0  0  0
   10.3459    0.3673    0.0000 H   0  0  0  0  0  0  0  0  0  0  0  0
   10.7477    1.0571    0.0000 H   0  0  0  0  0  0  0  0  0  0  0  0
    5.3787   -0.1167    0.0000 H   0  0  0  0  0  0  0  0  0  0  0  0
    4.7635    0.5081    0.0000 H   0  0  0  0  0  0  0  0  0  0  0  0
    4.1388   -0.1071    0.0000 H   0  0  0  0  0  0  0  0  0  0  0  0
    2.6718   -0.4905    0.0000 H   0  0  0  0  0  0  0  0  0  0  0  0
    2.2647   -1.1771    0.0000 H   0  0  0  0  0  0  0  0  0  0  0  0
    9.7571   -0.6169    0.0000 H   0  0  0  0  0  0  0  0  0  0  0  0
   10.6023   -0.3834    0.0000 H   0  0  0  0  0  0  0  0  0  0  0  0
   10.3688    0.4618    0.0000 H   0  0  0  0  0  0  0  0  0  0  0  0
   10.7477    1.9299    0.0000 H   0  0  0  0  0  0  0  0  0  0  0  0
   10.3459    2.6197    0.0000 H   0  0  0  0  0  0  0  0  0  0  0  0
    2.7728   -3.2632    0.0000 H   0  0  0  0  0  0  0  0  0  0  0  0
    3.0030   -4.1093    0.0000 H   0  0  0  0  0  0  0  0  0  0  0  0
    3.8490   -3.8791    0.0000 H   0  0  0  0  0  0  0  0  0  0  0  0
    3.7752   -3.8794    0.0000 H   0  0  0  0  0  0  0  0  0  0  0  0
    4.6230   -4.1030    0.0000 H   0  0  0  0  0  0  0  0  0  0  0  0
    4.8466   -3.2553    0.0000 H   0  0  0  0  0  0  0  0  0  0  0  0
    7.6860    3.0403    0.0000 H   0  0  0  0  0  0  0  0  0  0  0  0
    6.8436    2.7971    0.0000 H   0  0  0  0  0  0  0  0  0  0  0  0
    7.0868    1.9547    0.0000 H   0  0  0  0  0  0  0  0  0  0  0  0
    9.7148    3.8874    0.0000 H   0  0  0  0  0  0  0  0  0  0  0  0
    8.6410    3.8749    0.0000 H   0  0  0  0  0  0  0  0  0  0  0  0
  1 25  2  0  0  0  0
  2  3  1  0  0  0  0
  2  4  1  0  0  0  0
  2 10  1  0  0  0  0
  2 16  1  0  0  0  0
  3  5  1  0  0  0  0
  3 12  1  0  0  0  0
  3 17  1  0  0  0  0
  4  6  1  0  0  0  0
  4 11  1  0  0  0  0
  4 32  1  0  0  0  0
  5  7  1  0  0  0  0
  5 13  1  0  0  0  0
  5 33  1  0  0  0  0
  6  8  1  0  0  0  0
  6 18  1  0  0  0  0
  6 22  1  0  0  0  0
  7  9  1  0  0  0  0
  7 20  1  0  0  0  0
  7 34  1  0  0  0  0
  8 14  1  0  0  0  0
  8 19  1  0  0  0  0
  8 35  1  0  0  0  0
  9 15  1  0  0  0  0
  9 21  1  0  0  0  0
  9 24  1  0  0  0  0
 10 14  1  0  0  0  0
 10 36  1  0  0  0  0
 10 37  1  0  0  0  0
 11 13  1  0  0  0  0
 11 38  1  0  0  0  0
 11 39  1  0  0  0  0
 12 15  1  0  0  0  0
 12 40  1  0  0  0  0
 12 41  1  0  0  0  0
 13 42  1  0  0  0  0
 13 43  1  0  0  0  0
 14 44  1  0  0  0  0
 14 45  1  0  0  0  0
 15 46  1  0  0  0  0
 15 47  1  0  0  0  0
 16 48  1  0  0  0  0
 16 49  1  0  0  0  0
 16 50  1  0  0  0  0
 17 51  1  0  0  0  0
 17 52  1  0  0  0  0
 17 53  1  0  0  0  0
 18 23  1  0  0  0  0
 18 54  1  0  0  0  0
 18 55  1  0  0  0  0
 19 25  1  0  0  0  0
 19 28  1  0  0  0  0
 19 29  1  0  0  0  0
 20 27  1  0  0  0  0
 20 30  1  0  0  0  0
 20 56  1  0  0  0  0
 21 26  1  0  0  0  0
 21 57  1  0  0  0  0
 21 58  1  0  0  0  0
 22 59  1  0  0  0  0
 22 60  1  0  0  0  0
 22 61  1  0  0  0  0
 23 25  1  0  0  0  0
 23 62  1  0  0  0  0
 23 63  1  0  0  0  0
 24 64  1  0  0  0  0
 24 65  1  0  0  0  0
 24 66  1  0  0  0  0
 26 27  1  0  0  0  0
 26 67  1  0  0  0  0
 26 68  1  0  0  0  0
 27 31  2  0  0  0  0
 28 69  1  0  0  0  0
 28 70  1  0  0  0  0
 28 71  1  0  0  0  0
 29 72  1  0  0  0  0
 29 73  1  0  0  0  0
 29 74  1  0  0  0  0
 30 75  1  0  0  0  0
 30 76  1  0  0  0  0
 30 77  1  0  0  0  0
 31 78  1  0  0  0  0
 31 79  1  0  0  0  0
M  END
> <PUBCHEM_COMPOUND_CID>
14485465

> <PUBCHEM_COMPOUND_CANONICALIZED>
1

> <PUBCHEM_CACTVS_COMPLEXITY>
807

> <PUBCHEM_CACTVS_HBOND_ACCEPTOR>
1

> <PUBCHEM_CACTVS_HBOND_DONOR>
0

> <PUBCHEM_CACTVS_ROTATABLE_BOND>
0

> <PUBCHEM_CACTVS_SUBSKEYS>
AAADcfB4IAAAAAAAAAAAAAAAAAAAAAAAAAAwYMGDAAAAAADAAAAAGgAAAAAADwSAgAACAAAAAACIAoBSAAAAAAAgAAAAAAEAAAgAABIAAQAAAAAAgAAAAAEIiMCPgAAAAAAAAACAAAQAACAAAAAAAAAAAA==

> <PUBCHEM_IUPAC_OPENEYE_NAME>
4,4,6a,6b,8a,12,14b-heptamethyl-11-methylene-2,4a,5,6,6a,7,8,9,10,12,12a,13,14,14a-tetradecahydro-1H-picen-3-one

> <PUBCHEM_IUPAC_CAS_NAME>
4,4,6a,6b,8a,12,14b-heptamethyl-11-methylene-2,4a,5,6,6a,7,8,9,10,12,12a,13,14,14a-tetradecahydro-1H-picen-3-one

> <PUBCHEM_IUPAC_NAME_MARKUP>
4,4,6<I>a</I>,6<I>b</I>,8<I>a</I>,12,14<I>b</I>-heptamethyl-11-methylidene-2,4<I>a</I>,5,6,6<I>a</I>,7,8,9,10,12,12<I>a</I>,13,14,14<I>a</I>-tetradecahydro-1<I>H</I>-picen-3-one

> <PUBCHEM_IUPAC_NAME>
4,4,6a,6b,8a,12,14b-heptamethyl-11-methylidene-2,4a,5,6,6a,7,8,9,10,12,12a,13,14,14a-tetradecahydro-1H-picen-3-one

> <PUBCHEM_IUPAC_SYSTEMATIC_NAME>
4,4,6a,6b,8a,12,14b-heptamethyl-11-methylidene-2,4a,5,6,6a,7,8,9,10,12,12a,13,14,14a-tetradecahydro-1H-picen-3-one

> <PUBCHEM_IUPAC_TRADITIONAL_NAME>
4,4,6a,6b,8a,12,14b-heptamethyl-11-methylene-2,4a,5,6,6a,7,8,9,10,12,12a,13,14,14a-tetradecahydro-1H-picen-3-one

> <PUBCHEM_IUPAC_INCHI>
InChI=1S/C30H48O/c1-19-11-14-27(5)17-18-29(7)21(25(27)20(19)2)9-10-23-28(6)15-13-24(31)26(3,4)22(28)12-16-30(23,29)8/h20-23,25H,1,9-18H2,2-8H3

> <PUBCHEM_IUPAC_INCHIKEY>
ZYOCVAPRXVCQQR-UHFFFAOYSA-N

> <PUBCHEM_XLOGP3_AA>
8.8

> <PUBCHEM_EXACT_MASS>
424.370516

> <PUBCHEM_MOLECULAR_FORMULA>
C30H48O

> <PUBCHEM_MOLECULAR_WEIGHT>
424.7

> <PUBCHEM_OPENEYE_CAN_SMILES>
CC1C2C3CCC4C5(CCC(=O)C(C5CCC4(C3(CCC2(CCC1=C)C)C)C)(C)C)C

> <PUBCHEM_OPENEYE_ISO_SMILES>
CC1C2C3CCC4C5(CCC(=O)C(C5CCC4(C3(CCC2(CCC1=C)C)C)C)(C)C)C

> <PUBCHEM_CACTVS_TPSA>
17.1

> <PUBCHEM_MONOISOTOPIC_WEIGHT>
424.370516

> <PUBCHEM_TOTAL_CHARGE>
0

> <PUBCHEM_HEAVY_ATOM_COUNT>
31

> <PUBCHEM_ATOM_DEF_STEREO_COUNT>
0

> <PUBCHEM_ATOM_UDEF_STEREO_COUNT>
9

> <PUBCHEM_BOND_DEF_STEREO_COUNT>
0

> <PUBCHEM_BOND_UDEF_STEREO_COUNT>
0

> <PUBCHEM_ISOTOPIC_ATOM_COUNT>
0

> <PUBCHEM_COMPONENT_COUNT>
1

> <PUBCHEM_CACTVS_TAUTO_COUNT>
-1

> <PUBCHEM_COORDINATE_TYPE>
1
5
255

> <PUBCHEM_BONDANNOTATIONS>
2  16  3
20  30  3
3  17  3
4  11  3
5  13  3
6  22  3
7  20  3
8  14  3
9  24  3

$$$$
