12133315
  -OEChem-10022009483D

 30 32  0     0  0  0  0  0  0999 V2000
   -0.6788   -1.7437    0.0264 O   0  0  0  0  0  0  0  0  0  0  0  0
    4.2521    0.7432   -0.2388 O   0  0  0  0  0  0  0  0  0  0  0  0
    2.0079    2.2936   -0.2198 O   0  0  0  0  0  0  0  0  0  0  0  0
   -0.6129    2.3444   -0.1332 O   0  0  0  0  0  0  0  0  0  0  0  0
    4.0459   -2.0124   -0.1243 O   0  0  0  0  0  0  0  0  0  0  0  0
   -5.4901    0.9742    0.0879 O   0  0  0  0  0  0  0  0  0  0  0  0
    0.6183    0.3217   -0.0972 C   0  0  0  0  0  0  0  0  0  0  0  0
    0.5147   -1.0678   -0.0402 C   0  0  0  0  0  0  0  0  0  0  0  0
   -1.8826    0.3807   -0.0136 C   0  0  0  0  0  0  0  0  0  0  0  0
   -0.6149    1.1232   -0.0860 C   0  0  0  0  0  0  0  0  0  0  0  0
   -1.8409   -1.0122    0.0385 C   0  0  0  0  0  0  0  0  0  0  0  0
    1.8705    0.9381   -0.1642 C   0  0  0  0  0  0  0  0  0  0  0  0
    1.6727   -1.8480   -0.0497 C   0  0  0  0  0  0  0  0  0  0  0  0
    3.0238    0.1533   -0.1736 C   0  0  0  0  0  0  0  0  0  0  0  0
    2.9254   -1.2371   -0.1160 C   0  0  0  0  0  0  0  0  0  0  0  0
   -3.1061    1.0554    0.0025 C   0  0  0  0  0  0  0  0  0  0  0  0
   -3.0325   -1.7370    0.1073 C   0  0  0  0  0  0  0  0  0  0  0  0
   -4.2931    0.3258    0.0713 C   0  0  0  0  0  0  0  0  0  0  0  0
   -4.2567   -1.0677    0.1238 C   0  0  0  0  0  0  0  0  0  0  0  0
    4.8776    1.0722    0.9990 C   0  0  0  0  0  0  0  0  0  0  0  0
    1.5925   -2.9316   -0.0050 H   0  0  0  0  0  0  0  0  0  0  0  0
   -3.1418    2.1409   -0.0381 H   0  0  0  0  0  0  0  0  0  0  0  0
   -3.0155   -2.8228    0.1484 H   0  0  0  0  0  0  0  0  0  0  0  0
   -5.1798   -1.6384    0.1776 H   0  0  0  0  0  0  0  0  0  0  0  0
    2.9500    2.5124   -0.3205 H   0  0  0  0  0  0  0  0  0  0  0  0
    3.7848   -2.9482   -0.0780 H   0  0  0  0  0  0  0  0  0  0  0  0
    5.0896    0.1653    1.5739 H   0  0  0  0  0  0  0  0  0  0  0  0
    4.2490    1.7487    1.5868 H   0  0  0  0  0  0  0  0  0  0  0  0
    5.8234    1.5760    0.7813 H   0  0  0  0  0  0  0  0  0  0  0  0
   -5.3306    1.9327    0.0455 H   0  0  0  0  0  0  0  0  0  0  0  0
  1  8  1  0  0  0  0
  1 11  1  0  0  0  0
  2 14  1  0  0  0  0
  2 20  1  0  0  0  0
  3 12  1  0  0  0  0
  3 25  1  0  0  0  0
  4 10  2  0  0  0  0
  5 15  1  0  0  0  0
  5 26  1  0  0  0  0
  6 18  1  0  0  0  0
  6 30  1  0  0  0  0
  7  8  2  0  0  0  0
  7 10  1  0  0  0  0
  7 12  1  0  0  0  0
  8 13  1  0  0  0  0
  9 10  1  0  0  0  0
  9 11  2  0  0  0  0
  9 16  1  0  0  0  0
 11 17  1  0  0  0  0
 12 14  2  0  0  0  0
 13 15  2  0  0  0  0
 13 21  1  0  0  0  0
 14 15  1  0  0  0  0
 16 18  2  0  0  0  0
 16 22  1  0  0  0  0
 17 19  2  0  0  0  0
 17 23  1  0  0  0  0
 18 19  1  0  0  0  0
 19 24  1  0  0  0  0
 20 27  1  0  0  0  0
 20 28  1  0  0  0  0
 20 29  1  0  0  0  0
M  END
> <PUBCHEM_COMPOUND_CID>
12133315

> <PUBCHEM_CONFORMER_RMSD>
0.6

> <PUBCHEM_CONFORMER_DIVERSEORDER>
1

> <PUBCHEM_MMFF94_PARTIAL_CHARGES>
27
1 -0.17
10 0.4
11 0.08
12 0.08
13 -0.15
14 0.08
15 0.08
16 -0.15
17 -0.15
18 0.08
19 -0.15
2 -0.36
20 0.28
21 0.15
22 0.15
23 0.15
24 0.15
25 0.45
26 0.45
3 -0.53
30 0.45
4 -0.57
5 -0.53
6 -0.53
7 0.09
8 0.08
9 0.09

> <PUBCHEM_EFFECTIVE_ROTOR_COUNT>
1

> <PUBCHEM_PHARMACOPHORE_FEATURES>
9
1 1 acceptor
1 2 acceptor
1 3 donor
1 4 acceptor
1 5 donor
1 6 donor
6 1 7 8 9 10 11 rings
6 7 8 12 13 14 15 rings
6 9 11 16 17 18 19 rings

> <PUBCHEM_HEAVY_ATOM_COUNT>
20

> <PUBCHEM_ATOM_DEF_STEREO_COUNT>
0

> <PUBCHEM_ATOM_UDEF_STEREO_COUNT>
0

> <PUBCHEM_BOND_DEF_STEREO_COUNT>
0

> <PUBCHEM_BOND_UDEF_STEREO_COUNT>
0

> <PUBCHEM_ISOTOPIC_ATOM_COUNT>
0

> <PUBCHEM_COMPONENT_COUNT>
1

> <PUBCHEM_CACTVS_TAUTO_COUNT>
36

> <PUBCHEM_CONFORMER_ID>
00B923C300000001

> <PUBCHEM_MMFF94_ENERGY>
70.4289

> <PUBCHEM_FEATURE_SELFOVERLAP>
45.729

> <PUBCHEM_SHAPE_FINGERPRINT>
10411042 1 17545602254052725339
10608611 8 18409166627843535933
10616163 171 18340209720889038311
10906281 52 18188223108011627408
10967382 1 18410013234274091430
11132069 177 18409448098182277465
11471102 20 18410291397825826671
13140716 1 18193272116613653736
13214271 11 18412823624992459479
13221675 6 18409449184819721735
13675066 3 18259991487246053467
14790565 3 18120944073002071268
15196674 1 18410575080632128575
15230672 131 13650528200912566779
15375358 24 18409449206305159755
15442244 35 18339082579477605979
15536298 74 18341896281536618302
16945 1 18338517421937381318
1813 80 17167865261551077852
18186145 218 17603863412333849823
200 152 18059852879232200919
20510252 161 18271243824514580113
20645477 70 18342739576737695799
21267235 1 18338245868430518103
21421861 104 17895746284440057842
21452121 103 18342449357697667706
221490 88 18335431217400082787
2334 1 18338238279365451583
23402539 116 18342169003264361511
23402655 69 18342738511817434071
23463225 33 18409451396827963151
23559900 14 18412544297668104214
2748010 2 18410014368309085415
296302 2 17989207057544127511
335352 9 18337955567406511575
34934 24 18411975879662223887
350125 39 18410575046873530046
3545911 37 18411421712948382988
4072396 5 18335969914026208890
4214541 1 18410294714025784759
5104073 3 18410857642098487443
5374978 207 18409443657539573530
59755656 215 18411986837084067542
69090 78 18413105057066995831
7364860 26 18341895207995059452
8809292 202 18260555506472641539
9709674 26 18337115656339684491
9981440 41 17688588685957262928

> <PUBCHEM_SHAPE_MULTIPOLES>
376.37
9.38
2.22
0.65
1.71
0.03
0.06
-0.8
1.13
-0.64
-0.06
-0.25
-0.05
0.3

> <PUBCHEM_SHAPE_SELFOVERLAP>
847.469

> <PUBCHEM_SHAPE_VOLUME>
198.2

> <PUBCHEM_COORDINATE_TYPE>
2
5
10

$$$$
