71378875
  -OEChem-10022009473D

 40 42  0     0  0  0  0  0  0999 V2000
   -0.4518   -1.7527    0.0580 O   0  0  0  0  0  0  0  0  0  0  0  0
    2.1767    2.3294   -0.0186 O   0  0  0  0  0  0  0  0  0  0  0  0
    4.4424    0.8183    0.1333 O   0  0  0  0  0  0  0  0  0  0  0  0
    4.2758   -1.9395    0.2459 O   0  0  0  0  0  0  0  0  0  0  0  0
   -0.4442    2.3355   -0.1155 O   0  0  0  0  0  0  0  0  0  0  0  0
   -5.2953    0.8942   -0.2409 O   0  0  0  0  0  0  0  0  0  0  0  0
   -5.1826   -1.8780   -0.1162 O   0  0  0  0  0  0  0  0  0  0  0  0
    0.8156    0.3346    0.0170 C   0  0  0  0  0  0  0  0  0  0  0  0
    0.7318   -1.0564    0.0731 C   0  0  0  0  0  0  0  0  0  0  0  0
   -1.6856    0.3504   -0.0784 C   0  0  0  0  0  0  0  0  0  0  0  0
   -0.4289    1.1145   -0.0632 C   0  0  0  0  0  0  0  0  0  0  0  0
   -1.6240   -1.0415   -0.0166 C   0  0  0  0  0  0  0  0  0  0  0  0
    2.0587    0.9724    0.0370 C   0  0  0  0  0  0  0  0  0  0  0  0
    3.2228    0.2075    0.1137 C   0  0  0  0  0  0  0  0  0  0  0  0
    1.9007   -1.8165    0.1496 C   0  0  0  0  0  0  0  0  0  0  0  0
    3.1443   -1.1842    0.1700 C   0  0  0  0  0  0  0  0  0  0  0  0
   -2.9186    1.0040   -0.1531 C   0  0  0  0  0  0  0  0  0  0  0  0
   -2.8050   -1.7865   -0.0291 C   0  0  0  0  0  0  0  0  0  0  0  0
   -4.0947    0.2542   -0.1654 C   0  0  0  0  0  0  0  0  0  0  0  0
   -4.0384   -1.1384   -0.1035 C   0  0  0  0  0  0  0  0  0  0  0  0
    2.2818    2.9171   -1.3135 C   0  0  0  0  0  0  0  0  0  0  0  0
    4.9725    1.1616    1.4113 C   0  0  0  0  0  0  0  0  0  0  0  0
    4.8626   -2.3526   -0.9867 C   0  0  0  0  0  0  0  0  0  0  0  0
   -5.9166    1.2527    0.9918 C   0  0  0  0  0  0  0  0  0  0  0  0
    1.8431   -2.9014    0.1945 H   0  0  0  0  0  0  0  0  0  0  0  0
   -2.9757    2.0882   -0.2030 H   0  0  0  0  0  0  0  0  0  0  0  0
   -2.7577   -2.8719    0.0190 H   0  0  0  0  0  0  0  0  0  0  0  0
    3.2781    2.7330   -1.7274 H   0  0  0  0  0  0  0  0  0  0  0  0
    1.5205    2.5262   -1.9963 H   0  0  0  0  0  0  0  0  0  0  0  0
    2.1405    3.9966   -1.2122 H   0  0  0  0  0  0  0  0  0  0  0  0
    5.9433    1.6418    1.2614 H   0  0  0  0  0  0  0  0  0  0  0  0
    5.1171    0.2649    2.0221 H   0  0  0  0  0  0  0  0  0  0  0  0
    4.3111    1.8645    1.9275 H   0  0  0  0  0  0  0  0  0  0  0  0
   -4.9512   -2.8213   -0.0660 H   0  0  0  0  0  0  0  0  0  0  0  0
    5.7586   -2.9370   -0.7606 H   0  0  0  0  0  0  0  0  0  0  0  0
    5.1533   -1.4839   -1.5857 H   0  0  0  0  0  0  0  0  0  0  0  0
    4.1668   -2.9822   -1.5504 H   0  0  0  0  0  0  0  0  0  0  0  0
   -6.8659    1.7462    0.7662 H   0  0  0  0  0  0  0  0  0  0  0  0
   -5.2842    1.9494    1.5513 H   0  0  0  0  0  0  0  0  0  0  0  0
   -6.1198    0.3621    1.5949 H   0  0  0  0  0  0  0  0  0  0  0  0
  1  9  1  0  0  0  0
  1 12  1  0  0  0  0
  2 13  1  0  0  0  0
  2 21  1  0  0  0  0
  3 14  1  0  0  0  0
  3 22  1  0  0  0  0
  4 16  1  0  0  0  0
  4 23  1  0  0  0  0
  5 11  2  0  0  0  0
  6 19  1  0  0  0  0
  6 24  1  0  0  0  0
  7 20  1  0  0  0  0
  7 34  1  0  0  0  0
  8  9  1  0  0  0  0
  8 11  1  0  0  0  0
  8 13  2  0  0  0  0
  9 15  2  0  0  0  0
 10 11  1  0  0  0  0
 10 12  1  0  0  0  0
 10 17  2  0  0  0  0
 12 18  2  0  0  0  0
 13 14  1  0  0  0  0
 14 16  2  0  0  0  0
 15 16  1  0  0  0  0
 15 25  1  0  0  0  0
 17 19  1  0  0  0  0
 17 26  1  0  0  0  0
 18 20  1  0  0  0  0
 18 27  1  0  0  0  0
 19 20  2  0  0  0  0
 21 28  1  0  0  0  0
 21 29  1  0  0  0  0
 21 30  1  0  0  0  0
 22 31  1  0  0  0  0
 22 32  1  0  0  0  0
 22 33  1  0  0  0  0
 23 35  1  0  0  0  0
 23 36  1  0  0  0  0
 23 37  1  0  0  0  0
 24 38  1  0  0  0  0
 24 39  1  0  0  0  0
 24 40  1  0  0  0  0
M  END
> <PUBCHEM_COMPOUND_CID>
71378875

> <PUBCHEM_CONFORMER_RMSD>
0.8

> <PUBCHEM_CONFORMER_DIVERSEORDER>
1
2

> <PUBCHEM_MMFF94_PARTIAL_CHARGES>
28
1 -0.17
10 0.09
11 0.4
12 0.08
13 0.08
14 0.08
15 -0.15
16 0.08
17 -0.15
18 -0.15
19 0.08
2 -0.36
20 0.08
21 0.28
22 0.28
23 0.28
24 0.28
25 0.15
26 0.15
27 0.15
3 -0.36
34 0.45
4 -0.36
5 -0.57
6 -0.36
7 -0.53
8 0.09
9 0.08

> <PUBCHEM_EFFECTIVE_ROTOR_COUNT>
4

> <PUBCHEM_PHARMACOPHORE_FEATURES>
10
1 1 acceptor
1 2 acceptor
1 3 acceptor
1 4 acceptor
1 5 acceptor
1 6 acceptor
1 7 donor
6 1 8 9 10 11 12 rings
6 10 12 17 18 19 20 rings
6 8 9 13 14 15 16 rings

> <PUBCHEM_HEAVY_ATOM_COUNT>
24

> <PUBCHEM_ATOM_DEF_STEREO_COUNT>
0

> <PUBCHEM_ATOM_UDEF_STEREO_COUNT>
0

> <PUBCHEM_BOND_DEF_STEREO_COUNT>
0

> <PUBCHEM_BOND_UDEF_STEREO_COUNT>
0

> <PUBCHEM_ISOTOPIC_ATOM_COUNT>
0

> <PUBCHEM_COMPONENT_COUNT>
1

> <PUBCHEM_CACTVS_TAUTO_COUNT>
5

> <PUBCHEM_CONFORMER_ID>
044127BB00000001

> <PUBCHEM_MMFF94_ENERGY>
114.9688

> <PUBCHEM_FEATURE_SELFOVERLAP>
50.827

> <PUBCHEM_SHAPE_FINGERPRINT>
10616163 171 18267305515719269207
10906281 52 18115314509317226464
10967382 1 18337389443635561014
12107183 9 18124881149188572025
12236239 1 17917990556164124121
12403259 415 18262232214291346893
12553582 1 18262509274052343451
13140716 1 18409164454273436897
13533116 47 17917710158807564474
138480 1 18409166636407558076
14341114 176 18411705352894728473
14790565 3 17977107091453938660
14866123 147 17550957983675113674
15042514 8 17832138330135487610
15081414 286 18410293610114201492
15196674 1 18411698790116212731
15536298 74 18413669110784762122
1601671 61 18408039641494720220
17492 89 18338236097470084255
1813 80 17385441020591698004
18186145 218 17821440270796258119
19141452 34 18342455933118777663
200 152 18131346432273785871
21033648 29 17822281345926394629
21267235 1 18338806606407138731
21279426 13 18339077090883876911
21304253 335 18341613732633616804
21421861 104 17968927592304510042
21452121 103 18343011225277119458
221490 88 18262525899839117290
22182313 1 18190160327114077796
23402539 116 18343012320229970631
23559900 14 18412261731564030546
3004659 81 18334016060668752918
335352 9 18338800009801180439
34797466 226 16486976253775083049
34934 24 18340760515947465466
350125 39 18410015407596511228
3545911 37 18412262843944599576
3680242 22 18187639180994542170
4214541 1 18410855460771837447
474 4 18187081814266476937
5104073 3 18411698785810852747
543358 83 18410015441892556296
633830 44 17967247637447972987
7364860 26 18339924917681496500
9709674 26 18335704995816634395
9971528 1 18410854348238118876
9981440 41 17615686671284235224

> <PUBCHEM_SHAPE_MULTIPOLES>
452.82
11.64
2.77
0.86
6.86
0.4
-0.03
-1.12
-1.54
-1.82
0.58
-0.59
0.29
0.06

> <PUBCHEM_SHAPE_SELFOVERLAP>
996.798

> <PUBCHEM_SHAPE_VOLUME>
247.9

> <PUBCHEM_COORDINATE_TYPE>
2
5
10

$$$$
