21588226
  -OEChem-10022009583D

104109  0     1  0  0  0  0  0999 V2000
    4.0033    0.0764   -0.6061 O   0  0  0  0  0  0  0  0  0  0  0  0
    3.3567    1.6089    1.6561 O   0  0  0  0  0  0  0  0  0  0  0  0
   -3.3378   -2.2374    1.9487 O   0  0  0  0  0  0  0  0  0  0  0  0
    2.4608   -2.3047    2.4525 O   0  0  0  0  0  0  0  0  0  0  0  0
   -7.2420   -0.9551   -2.1181 O   0  0  0  0  0  0  0  0  0  0  0  0
    3.3325   -3.9036    1.0815 O   0  0  0  0  0  0  0  0  0  0  0  0
   -8.7292   -0.1447   -0.5924 O   0  0  0  0  0  0  0  0  0  0  0  0
    5.8065    0.8352    0.6654 O   0  0  0  0  0  0  0  0  0  0  0  0
    5.6986   -0.0999   -2.8651 O   0  0  0  0  0  0  0  0  0  0  0  0
    7.9444    1.8006   -2.7058 O   0  0  0  0  0  0  0  0  0  0  0  0
    9.3005    1.5544   -0.1649 O   0  0  0  0  0  0  0  0  0  0  0  0
    6.8455    0.8557    3.2102 O   0  0  0  0  0  0  0  0  0  0  0  0
   -1.9036   -1.0948   -0.6270 C   0  0  2  0  0  0  0  0  0  0  0  0
   -0.9606    0.0776   -0.1518 C   0  0  1  0  0  0  0  0  0  0  0  0
    0.6055   -0.0882   -0.3911 C   0  0  2  0  0  0  0  0  0  0  0  0
   -3.3822   -0.8436    0.0090 C   0  0  1  0  0  0  0  0  0  0  0  0
    1.0262   -1.4995    0.1503 C   0  0  1  0  0  0  0  0  0  0  0  0
   -1.3046   -2.4501   -0.1569 C   0  0  0  0  0  0  0  0  0  0  0  0
   -3.9057    0.5440   -0.4054 C   0  0  0  0  0  0  0  0  0  0  0  0
    0.1831   -2.6306   -0.4687 C   0  0  0  0  0  0  0  0  0  0  0  0
    2.5734   -1.7867    0.1468 C   0  0  2  0  0  0  0  0  0  0  0  0
   -5.3973    0.6712   -0.7729 C   0  0  1  0  0  0  0  0  0  0  0  0
   -1.5347    1.4573   -0.5456 C   0  0  0  0  0  0  0  0  0  0  0  0
    1.3597    1.0159    0.4316 C   0  0  0  0  0  0  0  0  0  0  0  0
   -4.3990   -1.9170   -0.4707 C   0  0  0  0  0  0  0  0  0  0  0  0
   -6.3645   -0.2996   -0.0179 C   0  0  1  0  0  0  0  0  0  0  0  0
   -2.0169   -1.1529   -2.1791 C   0  0  0  0  0  0  0  0  0  0  0  0
   -5.8023   -1.7411    0.1189 C   0  0  0  0  0  0  0  0  0  0  0  0
    3.3997   -0.5248    0.5392 C   0  0  2  0  0  0  0  0  0  0  0  0
   -3.0324    1.5499   -0.6140 C   0  0  0  0  0  0  0  0  0  0  0  0
    2.5379    0.5063    1.2695 C   0  0  1  0  0  0  0  0  0  0  0  0
    1.0066    0.0999   -1.8743 C   0  0  0  0  0  0  0  0  0  0  0  0
   -3.3467   -0.8847    1.5678 C   0  0  0  0  0  0  0  0  0  0  0  0
   -6.0096    2.1019   -0.7753 C   0  0  0  0  0  0  0  0  0  0  0  0
   -6.8455    0.2660    1.3491 C   0  0  0  0  0  0  0  0  0  0  0  0
   -6.3549    2.6794    0.6211 C   0  0  0  0  0  0  0  0  0  0  0  0
   -6.2275    1.6138    1.7241 C   0  0  0  0  0  0  0  0  0  0  0  0
    3.0954   -2.4419   -1.1451 C   0  0  0  0  0  0  0  0  0  0  0  0
    2.8423   -2.7967    1.2485 C   0  0  0  0  0  0  0  0  0  0  0  0
   -7.5881   -0.4438   -0.9114 C   0  0  0  0  0  0  0  0  0  0  0  0
   -5.4185    3.8548    0.9644 C   0  0  0  0  0  0  0  0  0  0  0  0
   -7.7946    3.2369    0.5951 C   0  0  0  0  0  0  0  0  0  0  0  0
    5.4259    0.0957   -0.4925 C   0  0  2  0  0  0  0  0  0  0  0  0
    5.9899    0.7483   -1.7547 C   0  0  1  0  0  0  0  0  0  0  0  0
    7.5023    0.9459   -1.6501 C   0  0  2  0  0  0  0  0  0  0  0  0
    7.2226    0.8717    0.8512 C   0  0  1  0  0  0  0  0  0  0  0  0
    7.8845    1.5988   -0.3216 C   0  0  1  0  0  0  0  0  0  0  0  0
    7.4944    1.5748    2.1774 C   0  0  0  0  0  0  0  0  0  0  0  0
   -1.0124    0.0686    0.9416 H   0  0  0  0  0  0  0  0  0  0  0  0
    0.7070   -1.4855    1.2034 H   0  0  0  0  0  0  0  0  0  0  0  0
   -1.8573   -3.2909   -0.5913 H   0  0  0  0  0  0  0  0  0  0  0  0
   -1.3784   -2.5525    0.9270 H   0  0  0  0  0  0  0  0  0  0  0  0
    0.3360   -2.7066   -1.5488 H   0  0  0  0  0  0  0  0  0  0  0  0
    0.4951   -3.5949   -0.0487 H   0  0  0  0  0  0  0  0  0  0  0  0
   -5.3841    0.3883   -1.8369 H   0  0  0  0  0  0  0  0  0  0  0  0
   -1.1856    2.2210    0.1586 H   0  0  0  0  0  0  0  0  0  0  0  0
   -1.1701    1.7609   -1.5303 H   0  0  0  0  0  0  0  0  0  0  0  0
    1.6928    1.8295   -0.2272 H   0  0  0  0  0  0  0  0  0  0  0  0
    0.6817    1.5123    1.1373 H   0  0  0  0  0  0  0  0  0  0  0  0
   -4.5093   -1.8767   -1.5610 H   0  0  0  0  0  0  0  0  0  0  0  0
   -4.0543   -2.9340   -0.2528 H   0  0  0  0  0  0  0  0  0  0  0  0
   -2.6341   -1.9971   -2.5027 H   0  0  0  0  0  0  0  0  0  0  0  0
   -1.0603   -1.3108   -2.6703 H   0  0  0  0  0  0  0  0  0  0  0  0
   -2.4496   -0.2466   -2.6108 H   0  0  0  0  0  0  0  0  0  0  0  0
   -5.7806   -2.0491    1.1700 H   0  0  0  0  0  0  0  0  0  0  0  0
   -6.4587   -2.4882   -0.3477 H   0  0  0  0  0  0  0  0  0  0  0  0
    4.1907   -0.8261    1.2415 H   0  0  0  0  0  0  0  0  0  0  0  0
   -3.3803    2.5141   -0.9675 H   0  0  0  0  0  0  0  0  0  0  0  0
    2.1488    0.0831    2.2009 H   0  0  0  0  0  0  0  0  0  0  0  0
    2.0656    0.3450   -1.9826 H   0  0  0  0  0  0  0  0  0  0  0  0
    0.4737    0.9211   -2.3568 H   0  0  0  0  0  0  0  0  0  0  0  0
    0.8520   -0.7936   -2.4781 H   0  0  0  0  0  0  0  0  0  0  0  0
   -4.2379   -0.4406    2.0095 H   0  0  0  0  0  0  0  0  0  0  0  0
   -2.5031   -0.3754    2.0311 H   0  0  0  0  0  0  0  0  0  0  0  0
   -6.9288    2.0561   -1.3768 H   0  0  0  0  0  0  0  0  0  0  0  0
   -5.3866    2.8013   -1.3436 H   0  0  0  0  0  0  0  0  0  0  0  0
   -7.9331    0.3669    1.4208 H   0  0  0  0  0  0  0  0  0  0  0  0
   -6.5988   -0.4285    2.1615 H   0  0  0  0  0  0  0  0  0  0  0  0
   -5.1716    1.4732    1.9769 H   0  0  0  0  0  0  0  0  0  0  0  0
   -6.6946    1.9717    2.6513 H   0  0  0  0  0  0  0  0  0  0  0  0
    2.9408   -1.8107   -2.0233 H   0  0  0  0  0  0  0  0  0  0  0  0
    4.1709   -2.6470   -1.0808 H   0  0  0  0  0  0  0  0  0  0  0  0
    2.6115   -3.4038   -1.3487 H   0  0  0  0  0  0  0  0  0  0  0  0
   -4.3748    3.5335    1.0315 H   0  0  0  0  0  0  0  0  0  0  0  0
   -5.6843    4.3013    1.9297 H   0  0  0  0  0  0  0  0  0  0  0  0
   -5.4775    4.6445    0.2069 H   0  0  0  0  0  0  0  0  0  0  0  0
   -8.5275    2.4579    0.3628 H   0  0  0  0  0  0  0  0  0  0  0  0
   -8.0701    3.6706    1.5631 H   0  0  0  0  0  0  0  0  0  0  0  0
   -7.8976    4.0236   -0.1613 H   0  0  0  0  0  0  0  0  0  0  0  0
    2.7898    2.2460    2.1235 H   0  0  0  0  0  0  0  0  0  0  0  0
   -3.3386   -2.2669    2.9204 H   0  0  0  0  0  0  0  0  0  0  0  0
    5.7801   -0.9408   -0.4075 H   0  0  0  0  0  0  0  0  0  0  0  0
    2.6252   -2.9436    3.1783 H   0  0  0  0  0  0  0  0  0  0  0  0
   -8.0181   -1.0562   -2.7093 H   0  0  0  0  0  0  0  0  0  0  0  0
    5.4896    1.7047   -1.9477 H   0  0  0  0  0  0  0  0  0  0  0  0
    8.0316   -0.0046   -1.7851 H   0  0  0  0  0  0  0  0  0  0  0  0
    7.5894   -0.1606    0.9333 H   0  0  0  0  0  0  0  0  0  0  0  0
    7.5896    2.6552   -0.3319 H   0  0  0  0  0  0  0  0  0  0  0  0
    6.1255   -0.9594   -2.7083 H   0  0  0  0  0  0  0  0  0  0  0  0
    8.5653    1.6171    2.3978 H   0  0  0  0  0  0  0  0  0  0  0  0
    7.0851    2.5906    2.1710 H   0  0  0  0  0  0  0  0  0  0  0  0
    7.4771    2.6494   -2.6235 H   0  0  0  0  0  0  0  0  0  0  0  0
    9.5709    0.6206   -0.1407 H   0  0  0  0  0  0  0  0  0  0  0  0
    7.0274    1.3229    4.0434 H   0  0  0  0  0  0  0  0  0  0  0  0
  1 29  1  0  0  0  0
  1 43  1  0  0  0  0
  2 31  1  0  0  0  0
  2 90  1  0  0  0  0
  3 33  1  0  0  0  0
  3 91  1  0  0  0  0
  4 39  1  0  0  0  0
  4 93  1  0  0  0  0
  5 40  1  0  0  0  0
  5 94  1  0  0  0  0
  6 39  2  0  0  0  0
  7 40  2  0  0  0  0
  8 43  1  0  0  0  0
  8 46  1  0  0  0  0
  9 44  1  0  0  0  0
  9 99  1  0  0  0  0
 10 45  1  0  0  0  0
 10102  1  0  0  0  0
 11 47  1  0  0  0  0
 11103  1  0  0  0  0
 12 48  1  0  0  0  0
 12104  1  0  0  0  0
 13 14  1  0  0  0  0
 13 16  1  0  0  0  0
 13 18  1  0  0  0  0
 13 27  1  0  0  0  0
 14 15  1  0  0  0  0
 14 23  1  0  0  0  0
 14 49  1  0  0  0  0
 15 17  1  0  0  0  0
 15 24  1  0  0  0  0
 15 32  1  0  0  0  0
 16 19  1  0  0  0  0
 16 25  1  0  0  0  0
 16 33  1  0  0  0  0
 17 20  1  0  0  0  0
 17 21  1  0  0  0  0
 17 50  1  0  0  0  0
 18 20  1  0  0  0  0
 18 51  1  0  0  0  0
 18 52  1  0  0  0  0
 19 22  1  0  0  0  0
 19 30  2  0  0  0  0
 20 53  1  0  0  0  0
 20 54  1  0  0  0  0
 21 29  1  0  0  0  0
 21 38  1  0  0  0  0
 21 39  1  0  0  0  0
 22 26  1  0  0  0  0
 22 34  1  0  0  0  0
 22 55  1  0  0  0  0
 23 30  1  0  0  0  0
 23 56  1  0  0  0  0
 23 57  1  0  0  0  0
 24 31  1  0  0  0  0
 24 58  1  0  0  0  0
 24 59  1  0  0  0  0
 25 28  1  0  0  0  0
 25 60  1  0  0  0  0
 25 61  1  0  0  0  0
 26 28  1  0  0  0  0
 26 35  1  0  0  0  0
 26 40  1  0  0  0  0
 27 62  1  0  0  0  0
 27 63  1  0  0  0  0
 27 64  1  0  0  0  0
 28 65  1  0  0  0  0
 28 66  1  0  0  0  0
 29 31  1  0  0  0  0
 29 67  1  0  0  0  0
 30 68  1  0  0  0  0
 31 69  1  0  0  0  0
 32 70  1  0  0  0  0
 32 71  1  0  0  0  0
 32 72  1  0  0  0  0
 33 73  1  0  0  0  0
 33 74  1  0  0  0  0
 34 36  1  0  0  0  0
 34 75  1  0  0  0  0
 34 76  1  0  0  0  0
 35 37  1  0  0  0  0
 35 77  1  0  0  0  0
 35 78  1  0  0  0  0
 36 37  1  0  0  0  0
 36 41  1  0  0  0  0
 36 42  1  0  0  0  0
 37 79  1  0  0  0  0
 37 80  1  0  0  0  0
 38 81  1  0  0  0  0
 38 82  1  0  0  0  0
 38 83  1  0  0  0  0
 41 84  1  0  0  0  0
 41 85  1  0  0  0  0
 41 86  1  0  0  0  0
 42 87  1  0  0  0  0
 42 88  1  0  0  0  0
 42 89  1  0  0  0  0
 43 44  1  0  0  0  0
 43 92  1  0  0  0  0
 44 45  1  0  0  0  0
 44 95  1  0  0  0  0
 45 47  1  0  0  0  0
 45 96  1  0  0  0  0
 46 47  1  0  0  0  0
 46 48  1  0  0  0  0
 46 97  1  0  0  0  0
 47 98  1  0  0  0  0
 48100  1  0  0  0  0
 48101  1  0  0  0  0
M  END
> <PUBCHEM_COMPOUND_CID>
21588226

> <PUBCHEM_CONFORMER_RMSD>
1.2

> <PUBCHEM_CONFORMER_DIVERSEORDER>
1
3
2

> <PUBCHEM_MMFF94_PARTIAL_CHARGES>
39
1 -0.56
10 -0.68
102 0.4
103 0.4
104 0.4
11 -0.68
12 -0.68
16 0.14
19 -0.28
2 -0.68
21 0.06
22 0.14
23 0.14
26 0.06
29 0.28
3 -0.68
30 -0.29
31 0.28
33 0.28
39 0.66
4 -0.65
40 0.66
43 0.56
44 0.28
45 0.28
46 0.28
47 0.28
48 0.28
5 -0.65
6 -0.57
68 0.15
7 -0.57
8 -0.56
9 -0.68
90 0.4
91 0.4
93 0.5
94 0.5
99 0.4

> <PUBCHEM_EFFECTIVE_ROTOR_COUNT>
9.8

> <PUBCHEM_PHARMACOPHORE_FEATURES>
27
1 1 acceptor
1 10 acceptor
1 10 donor
1 11 acceptor
1 11 donor
1 12 acceptor
1 12 donor
1 2 acceptor
1 2 donor
1 3 acceptor
1 3 donor
1 4 acceptor
1 5 acceptor
1 6 acceptor
1 7 acceptor
1 8 acceptor
1 9 acceptor
1 9 donor
3 36 41 42 hydrophobe
3 4 6 39 anion
3 5 7 40 anion
6 13 14 15 17 18 20 rings
6 13 14 16 19 23 30 rings
6 15 17 21 24 29 31 rings
6 16 19 22 25 26 28 rings
6 22 26 34 35 36 37 rings
6 8 43 44 45 46 47 rings

> <PUBCHEM_HEAVY_ATOM_COUNT>
48

> <PUBCHEM_ATOM_DEF_STEREO_COUNT>
15

> <PUBCHEM_ATOM_UDEF_STEREO_COUNT>
0

> <PUBCHEM_BOND_DEF_STEREO_COUNT>
0

> <PUBCHEM_BOND_UDEF_STEREO_COUNT>
0

> <PUBCHEM_ISOTOPIC_ATOM_COUNT>
0

> <PUBCHEM_COMPONENT_COUNT>
1

> <PUBCHEM_CACTVS_TAUTO_COUNT>
1

> <PUBCHEM_CONFORMER_ID>
0149690200000001

> <PUBCHEM_MMFF94_ENERGY>
219.6731

> <PUBCHEM_FEATURE_SELFOVERLAP>
137.318

> <PUBCHEM_SHAPE_FINGERPRINT>
10 15 17530963596388340900
10190206 1 17846232042237618656
11007060 377 18343586257015982763
11135926 11 18113052731561179510
12133447 93 18272661125405580388
12166972 35 9799686000420321782
12422481 6 18194960748026430999
13782708 43 8934704596647315901
13811026 1 18334010558667823643
13947947 73 16271935892156646192
14040222 383 18262519307264557458
14118638 360 18410851041355965531
14294032 229 18333730195855982924
14394314 77 18338521842108543197
14856354 85 17822577208674307383
150020 25 17632583755911140316
1577012 14 18271242725783296921
16728433 281 17773892925319496136
17686467 74 17988072405485660483
18608769 82 18339921614551173463
21033648 29 18341891896132260282
23522609 53 18266761094497570197
23559900 14 14620502467286651486
23576562 1 17416954192518448269
24771293 8 18335423464994683013
3504750 166 8142076538851520369
3986486 107 17846228743808230188
4073 2 18186527600720225939
4093350 32 18202005378733543958
4169191 19 18186522103245950389
44802255 64 17418373585173560133
45377200 153 16486397924171880959
5104073 3 18336543816568520827
5109719 28 18341051912868836280
6086070 43 17704065171638722177
6691757 9 17968100850298067331

> <PUBCHEM_SHAPE_MULTIPOLES>
917.39
26.37
3.35
2.16
13.76
0.07
-0.12
-18.41
1.91
-2.28
-1.07
3.47
-0.05
-1.33

> <PUBCHEM_SHAPE_SELFOVERLAP>
1959.188

> <PUBCHEM_SHAPE_VOLUME>
498.1

> <PUBCHEM_COORDINATE_TYPE>
2
5
10

$$$$
