15693541
  -OEChem-10022009523D

 43 45  0     0  0  0  0  0  0999 V2000
   -0.2547    1.5886    0.1483 O   0  0  0  0  0  0  0  0  0  0  0  0
    2.4902   -2.3595   -0.5261 O   0  0  0  0  0  0  0  0  0  0  0  0
    4.7120   -0.7855   -0.3645 O   0  0  0  0  0  0  0  0  0  0  0  0
    4.4665    1.9374    0.0472 O   0  0  0  0  0  0  0  0  0  0  0  0
   -0.1297   -2.4566   -0.4550 O   0  0  0  0  0  0  0  0  0  0  0  0
   -5.0210   -1.1986   -0.1123 O   0  0  0  0  0  0  0  0  0  0  0  0
   -4.9879    1.5487    0.2941 O   0  0  0  0  0  0  0  0  0  0  0  0
    1.0723   -0.4328   -0.1945 C   0  0  0  0  0  0  0  0  0  0  0  0
   -1.4279   -0.5352   -0.1291 C   0  0  0  0  0  0  0  0  0  0  0  0
    0.9485    0.9407    0.0133 C   0  0  0  0  0  0  0  0  0  0  0  0
   -1.4062    0.8441    0.0748 C   0  0  0  0  0  0  0  0  0  0  0  0
   -0.1495   -1.2478   -0.2757 C   0  0  0  0  0  0  0  0  0  0  0  0
    2.3333   -1.0207   -0.3226 C   0  0  0  0  0  0  0  0  0  0  0  0
    2.0953    1.7334    0.0939 C   0  0  0  0  0  0  0  0  0  0  0  0
    3.4752   -0.2235   -0.2413 C   0  0  0  0  0  0  0  0  0  0  0  0
   -2.6416   -1.2246   -0.1924 C   0  0  0  0  0  0  0  0  0  0  0  0
    3.3568    1.1509   -0.0335 C   0  0  0  0  0  0  0  0  0  0  0  0
   -2.6082    1.5406    0.2166 C   0  0  0  0  0  0  0  0  0  0  0  0
   -3.8391   -0.5233   -0.0500 C   0  0  0  0  0  0  0  0  0  0  0  0
   -3.8228    0.8566    0.1541 C   0  0  0  0  0  0  0  0  0  0  0  0
    2.6053   -3.1812    0.6334 C   0  0  0  0  0  0  0  0  0  0  0  0
    5.6002   -0.6420    0.7412 C   0  0  0  0  0  0  0  0  0  0  0  0
    4.2581    3.3319    0.2610 C   0  0  0  0  0  0  0  0  0  0  0  0
   -5.5425   -1.7060    1.1143 C   0  0  0  0  0  0  0  0  0  0  0  0
   -5.5824    2.0642   -0.8953 C   0  0  0  0  0  0  0  0  0  0  0  0
    1.9380    2.7947    0.2565 H   0  0  0  0  0  0  0  0  0  0  0  0
   -2.6677   -2.2994   -0.3518 H   0  0  0  0  0  0  0  0  0  0  0  0
   -2.5991    2.6162    0.3766 H   0  0  0  0  0  0  0  0  0  0  0  0
    1.8446   -2.9332    1.3809 H   0  0  0  0  0  0  0  0  0  0  0  0
    3.6019   -3.0722    1.0716 H   0  0  0  0  0  0  0  0  0  0  0  0
    2.4708   -4.2229    0.3296 H   0  0  0  0  0  0  0  0  0  0  0  0
    5.0653   -0.5295    1.6908 H   0  0  0  0  0  0  0  0  0  0  0  0
    6.2689    0.2076    0.5774 H   0  0  0  0  0  0  0  0  0  0  0  0
    6.2120   -1.5469    0.8008 H   0  0  0  0  0  0  0  0  0  0  0  0
    5.2461    3.8025    0.2989 H   0  0  0  0  0  0  0  0  0  0  0  0
    3.7779    3.5253    1.2263 H   0  0  0  0  0  0  0  0  0  0  0  0
    3.7195    3.7927   -0.5741 H   0  0  0  0  0  0  0  0  0  0  0  0
   -5.7322   -0.8905    1.8193 H   0  0  0  0  0  0  0  0  0  0  0  0
   -4.8502   -2.4304    1.5547 H   0  0  0  0  0  0  0  0  0  0  0  0
   -6.4887   -2.2110    0.9014 H   0  0  0  0  0  0  0  0  0  0  0  0
   -4.9106    2.7790   -1.3810 H   0  0  0  0  0  0  0  0  0  0  0  0
   -6.5050    2.5826   -0.6203 H   0  0  0  0  0  0  0  0  0  0  0  0
   -5.8300    1.2519   -1.5859 H   0  0  0  0  0  0  0  0  0  0  0  0
  1 10  1  0  0  0  0
  1 11  1  0  0  0  0
  2 13  1  0  0  0  0
  2 21  1  0  0  0  0
  3 15  1  0  0  0  0
  3 22  1  0  0  0  0
  4 17  1  0  0  0  0
  4 23  1  0  0  0  0
  5 12  2  0  0  0  0
  6 19  1  0  0  0  0
  6 24  1  0  0  0  0
  7 20  1  0  0  0  0
  7 25  1  0  0  0  0
  8 10  1  0  0  0  0
  8 12  1  0  0  0  0
  8 13  2  0  0  0  0
  9 11  1  0  0  0  0
  9 12  1  0  0  0  0
  9 16  2  0  0  0  0
 10 14  2  0  0  0  0
 11 18  2  0  0  0  0
 13 15  1  0  0  0  0
 14 17  1  0  0  0  0
 14 26  1  0  0  0  0
 15 17  2  0  0  0  0
 16 19  1  0  0  0  0
 16 27  1  0  0  0  0
 18 20  1  0  0  0  0
 18 28  1  0  0  0  0
 19 20  2  0  0  0  0
 21 29  1  0  0  0  0
 21 30  1  0  0  0  0
 21 31  1  0  0  0  0
 22 32  1  0  0  0  0
 22 33  1  0  0  0  0
 22 34  1  0  0  0  0
 23 35  1  0  0  0  0
 23 36  1  0  0  0  0
 23 37  1  0  0  0  0
 24 38  1  0  0  0  0
 24 39  1  0  0  0  0
 24 40  1  0  0  0  0
 25 41  1  0  0  0  0
 25 42  1  0  0  0  0
 25 43  1  0  0  0  0
M  END
> <PUBCHEM_COMPOUND_CID>
15693541

> <PUBCHEM_CONFORMER_RMSD>
0.8

> <PUBCHEM_CONFORMER_DIVERSEORDER>
3
1
2

> <PUBCHEM_MMFF94_PARTIAL_CHARGES>
28
1 -0.17
10 0.08
11 0.08
12 0.4
13 0.08
14 -0.15
15 0.08
16 -0.15
17 0.08
18 -0.15
19 0.08
2 -0.36
20 0.08
21 0.28
22 0.28
23 0.28
24 0.28
25 0.28
26 0.15
27 0.15
28 0.15
3 -0.36
4 -0.36
5 -0.57
6 -0.36
7 -0.36
8 0.09
9 0.09

> <PUBCHEM_EFFECTIVE_ROTOR_COUNT>
5

> <PUBCHEM_PHARMACOPHORE_FEATURES>
10
1 1 acceptor
1 2 acceptor
1 3 acceptor
1 4 acceptor
1 5 acceptor
1 6 acceptor
1 7 acceptor
6 1 8 9 10 11 12 rings
6 8 10 13 14 15 17 rings
6 9 11 16 18 19 20 rings

> <PUBCHEM_HEAVY_ATOM_COUNT>
25

> <PUBCHEM_ATOM_DEF_STEREO_COUNT>
0

> <PUBCHEM_ATOM_UDEF_STEREO_COUNT>
0

> <PUBCHEM_BOND_DEF_STEREO_COUNT>
0

> <PUBCHEM_BOND_UDEF_STEREO_COUNT>
0

> <PUBCHEM_ISOTOPIC_ATOM_COUNT>
0

> <PUBCHEM_COMPONENT_COUNT>
1

> <PUBCHEM_CACTVS_TAUTO_COUNT>
1

> <PUBCHEM_CONFORMER_ID>
00EF76E500000003

> <PUBCHEM_MMFF94_ENERGY>
127.7784

> <PUBCHEM_FEATURE_SELFOVERLAP>
50.834

> <PUBCHEM_SHAPE_FINGERPRINT>
10411042 1 17763182445525650622
10967382 1 18412546513639081486
1100329 8 18412539929934368650
11405975 8 18337393725981712553
11578080 2 17097762474828632046
12107183 9 17692255140607743745
12236239 1 18040435482205124806
12403259 415 18411140263968706261
12507560 40 18409169947837444429
12788726 201 17274837843140060905
13140716 1 18339367336262933667
138480 1 18123471575319153622
14787075 74 18200594838258106867
14790565 3 18339365283105600852
15196674 1 18411701006197985709
15536298 74 18343867723096615012
17492 89 18339927013436405879
17844677 252 18410301323875244113
18681886 176 18272646845055480650
19591789 44 18340486776106459198
200 152 18059855064879918081
20645477 70 18273219681342986174
20739085 24 18187645825810478948
21267235 1 18412554210320969054
21279426 13 18411984624284067764
21421861 104 17896874353490170058
21709351 56 18411414003466399405
21859007 373 17679282105738284924
221490 88 18338243678113137747
23402539 116 18272080591533451269
23558518 356 18116997899678127002
23559900 14 18339922589197597611
239999 70 18201445757490202574
3004659 81 18408606955293221748
335352 9 18412262801353551718
33824 294 18410013264629227210
34934 24 18341324513899430278
350125 39 18410573981590187676
3545911 37 18410013200505352669
3680242 22 18336826395130319394
4073 2 18187370947887165067
4214541 1 18410575076637796165
5104073 3 18410013247301678761
59755656 215 18337108943516330084
67856867 119 18411130334046126288
9709674 26 18411427197664376743
9981440 41 18265328602602384074
9999458 23 18408041806432238916

> <PUBCHEM_SHAPE_MULTIPOLES>
473.4
12.37
3.14
0.76
6.11
0.03
-0.05
2.44
-1.29
-1.9
-0.2
0.26
-0.12
0.75

> <PUBCHEM_SHAPE_SELFOVERLAP>
1036.561

> <PUBCHEM_SHAPE_VOLUME>
258.6

> <PUBCHEM_COORDINATE_TYPE>
2
5
10

$$$$
