24879693
  -OEChem-10022009363D

 56 58  0     1  0  0  0  0  0999 V2000
   -1.7420   -1.5970   -0.0650 O   0  0  0  0  0  0  0  0  0  0  0  0
   -1.9527    0.5761    0.8486 O   0  0  0  0  0  0  0  0  0  0  0  0
    1.4291   -2.7830    1.3039 O   0  0  0  0  0  0  0  0  0  0  0  0
   -4.3473   -2.1955    0.6531 O   0  0  0  0  0  0  0  0  0  0  0  0
   -5.7230   -0.0999   -0.7584 O   0  0  0  0  0  0  0  0  0  0  0  0
    0.2106   -0.5952   -1.9633 O   0  0  0  0  0  0  0  0  0  0  0  0
   -4.3664    2.0750    0.3041 O   0  0  0  0  0  0  0  0  0  0  0  0
    2.4913   -2.4315   -2.1876 O   0  0  0  0  0  0  0  0  0  0  0  0
   -0.2132    2.5314   -0.4986 O   0  0  0  0  0  0  0  0  0  0  0  0
    4.0775   -2.0339    0.9222 O   0  0  0  0  0  0  0  0  0  0  0  0
    0.1035    2.2595    1.7653 O   0  0  0  0  0  0  0  0  0  0  0  0
   -0.3341   -1.5891    0.1435 C   0  0  2  0  0  0  0  0  0  0  0  0
   -2.4128   -0.7773    0.8914 C   0  0  1  0  0  0  0  0  0  0  0  0
   -3.9259   -0.8356    0.6675 C   0  0  1  0  0  0  0  0  0  0  0  0
   -4.3035   -0.1490   -0.6451 C   0  0  2  0  0  0  0  0  0  0  0  0
    0.3915   -1.7803   -1.1874 C   0  0  2  0  0  0  0  0  0  0  0  0
   -3.7248    1.2681   -0.6865 C   0  0  2  0  0  0  0  0  0  0  0  0
   -2.2179    1.2354   -0.3995 C   0  0  1  0  0  0  0  0  0  0  0  0
    1.8867   -2.0225   -0.9637 C   0  0  1  0  0  0  0  0  0  0  0  0
    2.1138   -3.1114    0.0919 C   0  0  1  0  0  0  0  0  0  0  0  0
    0.0196   -2.7019    1.1189 C   0  0  0  0  0  0  0  0  0  0  0  0
   -1.6131    2.6324   -0.3098 C   0  0  0  0  0  0  0  0  0  0  0  0
    3.5932   -3.2696    0.4290 C   0  0  0  0  0  0  0  0  0  0  0  0
    0.5355    2.3450    0.6262 C   0  0  0  0  0  0  0  0  0  0  0  0
    1.9801    2.2576    0.2945 C   0  0  0  0  0  0  0  0  0  0  0  0
    2.9184    2.0687    1.3094 C   0  0  0  0  0  0  0  0  0  0  0  0
    2.3992    2.3637   -1.0318 C   0  0  0  0  0  0  0  0  0  0  0  0
    4.2756    1.9863    0.9980 C   0  0  0  0  0  0  0  0  0  0  0  0
    3.7563    2.2811   -1.3430 C   0  0  0  0  0  0  0  0  0  0  0  0
    4.6945    2.0924   -0.3281 C   0  0  0  0  0  0  0  0  0  0  0  0
    0.0087   -0.6351    0.5631 H   0  0  0  0  0  0  0  0  0  0  0  0
   -2.2028   -1.1681    1.8932 H   0  0  0  0  0  0  0  0  0  0  0  0
   -4.4512   -0.3464    1.4965 H   0  0  0  0  0  0  0  0  0  0  0  0
   -3.9348   -0.7389   -1.4930 H   0  0  0  0  0  0  0  0  0  0  0  0
   -0.0593   -2.5967   -1.7634 H   0  0  0  0  0  0  0  0  0  0  0  0
   -3.9335    1.7334   -1.6557 H   0  0  0  0  0  0  0  0  0  0  0  0
   -1.7211    0.6851   -1.2024 H   0  0  0  0  0  0  0  0  0  0  0  0
    2.3596   -1.0794   -0.6664 H   0  0  0  0  0  0  0  0  0  0  0  0
    1.7510   -4.0818   -0.2723 H   0  0  0  0  0  0  0  0  0  0  0  0
   -0.4292   -2.5177    2.0999 H   0  0  0  0  0  0  0  0  0  0  0  0
   -0.3700   -3.6710    0.7823 H   0  0  0  0  0  0  0  0  0  0  0  0
   -1.8555    3.1353    0.6342 H   0  0  0  0  0  0  0  0  0  0  0  0
   -1.9907    3.2618   -1.1227 H   0  0  0  0  0  0  0  0  0  0  0  0
    4.1791   -3.5608   -0.4479 H   0  0  0  0  0  0  0  0  0  0  0  0
    3.7270   -4.0196    1.2153 H   0  0  0  0  0  0  0  0  0  0  0  0
   -4.0831   -2.5937    1.5001 H   0  0  0  0  0  0  0  0  0  0  0  0
   -5.9339    0.3562   -1.5909 H   0  0  0  0  0  0  0  0  0  0  0  0
    0.6265    0.1435   -1.4883 H   0  0  0  0  0  0  0  0  0  0  0  0
   -4.0407    1.8040    1.1788 H   0  0  0  0  0  0  0  0  0  0  0  0
    2.0724   -3.2637   -2.4663 H   0  0  0  0  0  0  0  0  0  0  0  0
    5.0185   -2.1578    1.1332 H   0  0  0  0  0  0  0  0  0  0  0  0
    2.6124    1.9822    2.3485 H   0  0  0  0  0  0  0  0  0  0  0  0
    1.7031    2.5099   -1.8527 H   0  0  0  0  0  0  0  0  0  0  0  0
    5.0062    1.8381    1.7879 H   0  0  0  0  0  0  0  0  0  0  0  0
    4.0831    2.3627   -2.3756 H   0  0  0  0  0  0  0  0  0  0  0  0
    5.7511    2.0272   -0.5706 H   0  0  0  0  0  0  0  0  0  0  0  0
  1 12  1  0  0  0  0
  1 13  1  0  0  0  0
  2 13  1  0  0  0  0
  2 18  1  0  0  0  0
  3 20  1  0  0  0  0
  3 21  1  0  0  0  0
  4 14  1  0  0  0  0
  4 46  1  0  0  0  0
  5 15  1  0  0  0  0
  5 47  1  0  0  0  0
  6 16  1  0  0  0  0
  6 48  1  0  0  0  0
  7 17  1  0  0  0  0
  7 49  1  0  0  0  0
  8 19  1  0  0  0  0
  8 50  1  0  0  0  0
  9 22  1  0  0  0  0
  9 24  1  0  0  0  0
 10 23  1  0  0  0  0
 10 51  1  0  0  0  0
 11 24  2  0  0  0  0
 12 16  1  0  0  0  0
 12 21  1  0  0  0  0
 12 31  1  0  0  0  0
 13 14  1  0  0  0  0
 13 32  1  0  0  0  0
 14 15  1  0  0  0  0
 14 33  1  0  0  0  0
 15 17  1  0  0  0  0
 15 34  1  0  0  0  0
 16 19  1  0  0  0  0
 16 35  1  0  0  0  0
 17 18  1  0  0  0  0
 17 36  1  0  0  0  0
 18 22  1  0  0  0  0
 18 37  1  0  0  0  0
 19 20  1  0  0  0  0
 19 38  1  0  0  0  0
 20 23  1  0  0  0  0
 20 39  1  0  0  0  0
 21 40  1  0  0  0  0
 21 41  1  0  0  0  0
 22 42  1  0  0  0  0
 22 43  1  0  0  0  0
 23 44  1  0  0  0  0
 23 45  1  0  0  0  0
 24 25  1  0  0  0  0
 25 26  2  0  0  0  0
 25 27  1  0  0  0  0
 26 28  1  0  0  0  0
 26 52  1  0  0  0  0
 27 29  2  0  0  0  0
 27 53  1  0  0  0  0
 28 30  2  0  0  0  0
 28 54  1  0  0  0  0
 29 30  1  0  0  0  0
 29 55  1  0  0  0  0
 30 56  1  0  0  0  0
M  END
> <PUBCHEM_COMPOUND_CID>
24879693

> <PUBCHEM_CONFORMER_RMSD>
1

> <PUBCHEM_CONFORMER_DIVERSEORDER>
2
86
25
4
8
60
75
36
6
48
46
34
24
77
11
85
50
41
22
26
71
9
79
44
59
45
10
19
42
38
29
73
54
53
72
69
15
84
74
14
30
66
83
47
64
61
31
17
35
3
57
43
12
70
68
52
80
37
28
82
51
7
67
16
21
32
78
5
33
63
76
23
62
40
56
58
39
49
65
27
20
1
13
81
55
18

> <PUBCHEM_MMFF94_PARTIAL_CHARGES>
41
1 -0.56
10 -0.68
11 -0.57
12 0.28
13 0.56
14 0.28
15 0.28
16 0.28
17 0.28
18 0.28
19 0.28
2 -0.56
20 0.28
21 0.28
22 0.28
23 0.28
24 0.63
25 0.09
26 -0.15
27 -0.15
28 -0.15
29 -0.15
3 -0.56
30 -0.15
4 -0.68
46 0.4
47 0.4
48 0.4
49 0.4
5 -0.68
50 0.4
51 0.4
52 0.15
53 0.15
54 0.15
55 0.15
56 0.15
6 -0.68
7 -0.68
8 -0.68
9 -0.43

> <PUBCHEM_EFFECTIVE_ROTOR_COUNT>
9.4

> <PUBCHEM_PHARMACOPHORE_FEATURES>
19
1 1 acceptor
1 10 acceptor
1 10 donor
1 11 acceptor
1 2 acceptor
1 3 acceptor
1 4 acceptor
1 4 donor
1 5 acceptor
1 5 donor
1 6 acceptor
1 6 donor
1 7 acceptor
1 7 donor
1 8 acceptor
1 8 donor
6 2 13 14 15 17 18 rings
6 25 26 27 28 29 30 rings
6 3 12 16 19 20 21 rings

> <PUBCHEM_HEAVY_ATOM_COUNT>
30

> <PUBCHEM_ATOM_DEF_STEREO_COUNT>
9

> <PUBCHEM_ATOM_UDEF_STEREO_COUNT>
0

> <PUBCHEM_BOND_DEF_STEREO_COUNT>
0

> <PUBCHEM_BOND_UDEF_STEREO_COUNT>
0

> <PUBCHEM_ISOTOPIC_ATOM_COUNT>
0

> <PUBCHEM_COMPONENT_COUNT>
1

> <PUBCHEM_CACTVS_TAUTO_COUNT>
1

> <PUBCHEM_CONFORMER_ID>
017BA24D00000002

> <PUBCHEM_MMFF94_ENERGY>
88.8462

> <PUBCHEM_FEATURE_SELFOVERLAP>
96.507

> <PUBCHEM_SHAPE_FINGERPRINT>
10190108 129 17834684069079972539
107951 10 17386847394694961592
1100329 8 17836088870676267761
11578080 2 17677314027616754749
11963148 33 18047182231683377907
12156800 1 15576997379917957794
12166972 35 17606972693826109622
12422481 6 18193807441827681104
12592029 89 18339083821039698465
13140716 1 18338525123314792745
133893 2 18267042599243205096
13402501 40 18340777047640604316
140371 6 17697320607867455781
17093844 170 18410014377395229948
20028762 73 17767407151409243287
20567600 347 18338513144118266932
20600515 1 17405977462647119944
20642791 35 18196098733591761173
20691752 17 17749676186407639893
20905425 154 18341901774557138516
21421861 104 18126865797320174065
23419403 2 17970327266106044630
23559900 14 18262795164239252782
238918 7 18198627825078352806
3298306 158 18339921631435519977
338550 245 18334292106838410796
35225 105 17685490249426178278
4093350 32 17703526436805945271
4280585 95 17901373503705319730
460360 51 18265629705701495681
463206 1 18342449395750986250
59755656 215 18194116542050168223
81228 2 17407692709502849219

> <PUBCHEM_SHAPE_MULTIPOLES>
552.82
9.08
4.76
1.48
5.24
1.89
-0.28
-2.29
-0.18
-4.42
0.39
-0.81
0.21
0.37

> <PUBCHEM_SHAPE_SELFOVERLAP>
1162.973

> <PUBCHEM_SHAPE_VOLUME>
304.8

> <PUBCHEM_COORDINATE_TYPE>
2
5
10

$$$$
