94202972
  -OEChem-10022009462D

 56 58  0     1  0  0  0  0  0999 V2000
    8.0622   -0.0600    0.0000 O   0  0  0  0  0  0  0  0  0  0  0  0
    6.3301   -0.0600    0.0000 O   0  0  0  0  0  0  0  0  0  0  0  0
    8.9282    2.4400    0.0000 O   0  0  0  0  0  0  0  0  0  0  0  0
    4.5981   -2.0600    0.0000 O   0  0  0  0  0  0  0  0  0  0  0  0
    8.0622   -2.0600    0.0000 O   0  0  0  0  0  0  0  0  0  0  0  0
    6.3301   -3.0600    0.0000 O   0  0  0  0  0  0  0  0  0  0  0  0
    6.3301    0.9400    0.0000 O   0  0  0  0  0  0  0  0  0  0  0  0
    6.3301    2.9400    0.0000 O   0  0  0  0  0  0  0  0  0  0  0  0
    4.5981    0.9400    0.0000 O   0  0  0  0  0  0  0  0  0  0  0  0
    8.9282    4.4400    0.0000 O   0  0  0  0  0  0  0  0  0  0  0  0
    5.4641   -3.5600    0.0000 O   0  0  0  0  0  0  0  0  0  0  0  0
    7.1962   -0.5600    0.0000 C   0  0  1  0  0  0  0  0  0  0  0  0
    8.0622    0.9400    0.0000 C   0  0  2  0  0  0  0  0  0  0  0  0
    7.1962   -1.5600    0.0000 C   0  0  1  0  0  0  0  0  0  0  0  0
    6.3301   -2.0600    0.0000 C   0  0  2  0  0  0  0  0  0  0  0  0
    5.4641   -1.5600    0.0000 C   0  0  2  0  0  0  0  0  0  0  0  0
    5.4641   -0.5600    0.0000 C   0  0  1  0  0  0  0  0  0  0  0  0
    7.1962    1.4400    0.0000 C   0  0  2  0  0  0  0  0  0  0  0  0
    7.1962    2.4400    0.0000 C   0  0  1  0  0  0  0  0  0  0  0  0
    8.0622    2.9400    0.0000 C   0  0  1  0  0  0  0  0  0  0  0  0
    8.9282    1.4400    0.0000 C   0  0  0  0  0  0  0  0  0  0  0  0
    4.5981   -0.0600    0.0000 C   0  0  0  0  0  0  0  0  0  0  0  0
    8.0622    3.9400    0.0000 C   0  0  0  0  0  0  0  0  0  0  0  0
    4.5981   -3.0600    0.0000 C   0  0  0  0  0  0  0  0  0  0  0  0
    3.7320   -3.5600    0.0000 C   0  0  0  0  0  0  0  0  0  0  0  0
    2.8660   -3.0600    0.0000 C   0  0  0  0  0  0  0  0  0  0  0  0
    3.7320   -4.5600    0.0000 C   0  0  0  0  0  0  0  0  0  0  0  0
    2.0000   -3.5600    0.0000 C   0  0  0  0  0  0  0  0  0  0  0  0
    2.8660   -5.0600    0.0000 C   0  0  0  0  0  0  0  0  0  0  0  0
    2.0000   -4.5600    0.0000 C   0  0  0  0  0  0  0  0  0  0  0  0
    7.7331   -0.8700    0.0000 H   0  0  0  0  0  0  0  0  0  0  0  0
    7.5252    0.6300    0.0000 H   0  0  0  0  0  0  0  0  0  0  0  0
    7.1962   -2.1800    0.0000 H   0  0  0  0  0  0  0  0  0  0  0  0
    5.7932   -2.3700    0.0000 H   0  0  0  0  0  0  0  0  0  0  0  0
    5.4641   -2.1800    0.0000 H   0  0  0  0  0  0  0  0  0  0  0  0
    5.4641    0.0600    0.0000 H   0  0  0  0  0  0  0  0  0  0  0  0
    7.7331    1.1300    0.0000 H   0  0  0  0  0  0  0  0  0  0  0  0
    6.6592    2.1300    0.0000 H   0  0  0  0  0  0  0  0  0  0  0  0
    8.5991    3.2500    0.0000 H   0  0  0  0  0  0  0  0  0  0  0  0
    9.1403    0.8574    0.0000 H   0  0  0  0  0  0  0  0  0  0  0  0
    9.5388    1.5477    0.0000 H   0  0  0  0  0  0  0  0  0  0  0  0
    3.9875    0.0477    0.0000 H   0  0  0  0  0  0  0  0  0  0  0  0
    4.3860   -0.6426    0.0000 H   0  0  0  0  0  0  0  0  0  0  0  0
    7.8501    4.5226    0.0000 H   0  0  0  0  0  0  0  0  0  0  0  0
    7.4516    3.8323    0.0000 H   0  0  0  0  0  0  0  0  0  0  0  0
    8.5991   -1.7500    0.0000 H   0  0  0  0  0  0  0  0  0  0  0  0
    6.8671   -3.3700    0.0000 H   0  0  0  0  0  0  0  0  0  0  0  0
    5.7932    1.2500    0.0000 H   0  0  0  0  0  0  0  0  0  0  0  0
    6.3301    3.5600    0.0000 H   0  0  0  0  0  0  0  0  0  0  0  0
    4.0611    1.2500    0.0000 H   0  0  0  0  0  0  0  0  0  0  0  0
    8.9282    5.0600    0.0000 H   0  0  0  0  0  0  0  0  0  0  0  0
    2.8660   -2.4400    0.0000 H   0  0  0  0  0  0  0  0  0  0  0  0
    4.2690   -4.8700    0.0000 H   0  0  0  0  0  0  0  0  0  0  0  0
    1.4631   -3.2500    0.0000 H   0  0  0  0  0  0  0  0  0  0  0  0
    2.8660   -5.6800    0.0000 H   0  0  0  0  0  0  0  0  0  0  0  0
    1.4631   -4.8700    0.0000 H   0  0  0  0  0  0  0  0  0  0  0  0
 12  1  1  6  0  0  0
 13  1  1  6  0  0  0
  2 12  1  0  0  0  0
  2 17  1  0  0  0  0
  3 20  1  0  0  0  0
  3 21  1  0  0  0  0
 16  4  1  1  0  0  0
  4 24  1  0  0  0  0
 14  5  1  6  0  0  0
  5 46  1  0  0  0  0
 15  6  1  1  0  0  0
  6 47  1  0  0  0  0
 18  7  1  1  0  0  0
  7 48  1  0  0  0  0
 19  8  1  6  0  0  0
  8 49  1  0  0  0  0
  9 22  1  0  0  0  0
  9 50  1  0  0  0  0
 10 23  1  0  0  0  0
 10 51  1  0  0  0  0
 11 24  2  0  0  0  0
 12 14  1  0  0  0  0
 12 31  1  0  0  0  0
 13 18  1  0  0  0  0
 13 21  1  0  0  0  0
 13 32  1  0  0  0  0
 14 15  1  0  0  0  0
 14 33  1  0  0  0  0
 15 16  1  0  0  0  0
 15 34  1  0  0  0  0
 16 17  1  0  0  0  0
 16 35  1  0  0  0  0
 17 22  1  1  0  0  0
 17 36  1  0  0  0  0
 18 19  1  0  0  0  0
 18 37  1  0  0  0  0
 19 20  1  0  0  0  0
 19 38  1  0  0  0  0
 20 23  1  1  0  0  0
 20 39  1  0  0  0  0
 21 40  1  0  0  0  0
 21 41  1  0  0  0  0
 22 42  1  0  0  0  0
 22 43  1  0  0  0  0
 23 44  1  0  0  0  0
 23 45  1  0  0  0  0
 24 25  1  0  0  0  0
 25 26  2  0  0  0  0
 25 27  1  0  0  0  0
 26 28  1  0  0  0  0
 26 52  1  0  0  0  0
 27 29  2  0  0  0  0
 27 53  1  0  0  0  0
 28 30  2  0  0  0  0
 28 54  1  0  0  0  0
 29 30  1  0  0  0  0
 29 55  1  0  0  0  0
 30 56  1  0  0  0  0
M  END
> <PUBCHEM_COMPOUND_CID>
94202972

> <PUBCHEM_COMPOUND_CANONICALIZED>
1

> <PUBCHEM_CACTVS_COMPLEXITY>
555

> <PUBCHEM_CACTVS_HBOND_ACCEPTOR>
11

> <PUBCHEM_CACTVS_HBOND_DONOR>
6

> <PUBCHEM_CACTVS_ROTATABLE_BOND>
7

> <PUBCHEM_CACTVS_SUBSKEYS>
AAADceB4PAAAAAAAAAAAAAAAAAAAAAAAAAA0SIAAAAAAAAABAAAAGgAACAAADBSwmAMwCIAABgCIAiDSCAACAAAkAAAIiAEACMgZNjKANRiicQAlwAEPqYfI6CyOAAAAAAAAAAAAAAAAAAAAAAAAAAAAAA==

> <PUBCHEM_IUPAC_OPENEYE_NAME>
[(2R,3R,4R,5R,6S)-6-[(3S,4S,5S,6R)-4,5-dihydroxy-6-(hydroxymethyl)tetrahydropyran-3-yl]oxy-4,5-dihydroxy-2-(hydroxymethyl)tetrahydropyran-3-yl] benzoate

> <PUBCHEM_IUPAC_CAS_NAME>
benzoic acid [(2R,3R,4R,5R,6S)-6-[[(3S,4S,5S,6R)-4,5-dihydroxy-6-(hydroxymethyl)-3-oxanyl]oxy]-4,5-dihydroxy-2-(hydroxymethyl)-3-oxanyl] ester

> <PUBCHEM_IUPAC_NAME_MARKUP>
[(2<I>R</I>,3<I>R</I>,4<I>R</I>,5<I>R</I>,6<I>S</I>)-6-[(3<I>S</I>,4<I>S</I>,5<I>S</I>,6<I>R</I>)-4,5-dihydroxy-6-(hydroxymethyl)oxan-3-yl]oxy-4,5-dihydroxy-2-(hydroxymethyl)oxan-3-yl] benzoate

> <PUBCHEM_IUPAC_NAME>
[(2R,3R,4R,5R,6S)-6-[(3S,4S,5S,6R)-4,5-dihydroxy-6-(hydroxymethyl)oxan-3-yl]oxy-4,5-dihydroxy-2-(hydroxymethyl)oxan-3-yl] benzoate

> <PUBCHEM_IUPAC_SYSTEMATIC_NAME>
[(2R,3R,4R,5R,6S)-2-(hydroxymethyl)-6-[(3S,4S,5S,6R)-6-(hydroxymethyl)-4,5-bis(oxidanyl)oxan-3-yl]oxy-4,5-bis(oxidanyl)oxan-3-yl] benzoate

> <PUBCHEM_IUPAC_TRADITIONAL_NAME>
benzoic acid [(2R,3R,4R,5R,6S)-6-[(3S,4S,5S,6R)-4,5-dihydroxy-6-methylol-tetrahydropyran-3-yl]oxy-4,5-dihydroxy-2-methylol-tetrahydropyran-3-yl] ester

> <PUBCHEM_IUPAC_INCHI>
InChI=1S/C19H26O11/c20-6-10-13(22)14(23)12(8-27-10)29-19-16(25)15(24)17(11(7-21)28-19)30-18(26)9-4-2-1-3-5-9/h1-5,10-17,19-25H,6-8H2/t10-,11-,12+,13-,14-,15-,16-,17+,19-/m1/s1

> <PUBCHEM_IUPAC_INCHIKEY>
JJHWJXOVGLKJPQ-OZKKQLQWSA-N

> <PUBCHEM_XLOGP3_AA>
-2

> <PUBCHEM_EXACT_MASS>
430.147512

> <PUBCHEM_MOLECULAR_FORMULA>
C19H26O11

> <PUBCHEM_MOLECULAR_WEIGHT>
430.4

> <PUBCHEM_OPENEYE_CAN_SMILES>
C1C(C(C(C(O1)CO)O)O)OC2C(C(C(C(O2)CO)OC(=O)C3=CC=CC=C3)O)O

> <PUBCHEM_OPENEYE_ISO_SMILES>
C1[C@@H]([C@H]([C@@H]([C@H](O1)CO)O)O)O[C@@H]2[C@@H]([C@H]([C@H]([C@H](O2)CO)OC(=O)C3=CC=CC=C3)O)O

> <PUBCHEM_CACTVS_TPSA>
175

> <PUBCHEM_MONOISOTOPIC_WEIGHT>
430.147512

> <PUBCHEM_TOTAL_CHARGE>
0

> <PUBCHEM_HEAVY_ATOM_COUNT>
30

> <PUBCHEM_ATOM_DEF_STEREO_COUNT>
9

> <PUBCHEM_ATOM_UDEF_STEREO_COUNT>
0

> <PUBCHEM_BOND_DEF_STEREO_COUNT>
0

> <PUBCHEM_BOND_UDEF_STEREO_COUNT>
0

> <PUBCHEM_ISOTOPIC_ATOM_COUNT>
0

> <PUBCHEM_COMPONENT_COUNT>
1

> <PUBCHEM_CACTVS_TAUTO_COUNT>
-1

> <PUBCHEM_COORDINATE_TYPE>
1
5
255

> <PUBCHEM_BONDANNOTATIONS>
12  1  6
13  1  6
17  22  5
20  23  5
25  26  8
25  27  8
26  28  8
27  29  8
28  30  8
29  30  8
16  4  5
14  5  6
15  6  5
18  7  5
19  8  6

$$$$
