28481
  -OEChem-09112014243D

 39 41  0     1  0  0  0  0  0999 V2000
    1.0340    0.5561    0.7628 C   0  0  2  0  0  0  0  0  0  0  0  0
    1.8850    0.6583   -0.4771 C   0  0  0  0  0  0  0  0  0  0  0  0
    2.1269   -0.4604    0.5028 C   0  0  2  0  0  0  0  0  0  0  0  0
   -0.4406    0.1404    0.7118 C   0  0  2  0  0  0  0  0  0  0  0  0
    1.8026   -1.8622    0.0792 C   0  0  0  0  0  0  0  0  0  0  0  0
   -0.6238   -1.2607    0.1060 C   0  0  0  0  0  0  0  0  0  0  0  0
   -1.2473    1.2061   -0.1209 C   0  0  1  0  0  0  0  0  0  0  0  0
    0.4036   -2.2927    0.5083 C   0  0  0  0  0  0  0  0  0  0  0  0
    2.8945    1.7587   -0.5042 C   0  0  0  0  0  0  0  0  0  0  0  0
    1.3604    0.3367   -1.8367 C   0  0  0  0  0  0  0  0  0  0  0  0
   -0.9552    0.0670    2.1743 C   0  0  0  0  0  0  0  0  0  0  0  0
   -2.6680    0.7134   -0.4424 C   0  0  0  0  0  0  0  0  0  0  0  0
   -1.6055   -1.5618   -0.7615 C   0  0  0  0  0  0  0  0  0  0  0  0
   -2.6441   -0.5931   -1.2302 C   0  0  0  0  0  0  0  0  0  0  0  0
   -1.3228    2.5942    0.5280 C   0  0  0  0  0  0  0  0  0  0  0  0
    1.2223    1.2877    1.5434 H   0  0  0  0  0  0  0  0  0  0  0  0
    3.0084   -0.4175    1.1316 H   0  0  0  0  0  0  0  0  0  0  0  0
    2.5251   -2.5409    0.5506 H   0  0  0  0  0  0  0  0  0  0  0  0
    1.9396   -2.0092   -0.9975 H   0  0  0  0  0  0  0  0  0  0  0  0
   -0.7634    1.3691   -1.0861 H   0  0  0  0  0  0  0  0  0  0  0  0
    0.3732   -2.4323    1.5950 H   0  0  0  0  0  0  0  0  0  0  0  0
    0.1819   -3.2737    0.0707 H   0  0  0  0  0  0  0  0  0  0  0  0
    3.3100    1.9701    0.4877 H   0  0  0  0  0  0  0  0  0  0  0  0
    3.7319    1.5002   -1.1614 H   0  0  0  0  0  0  0  0  0  0  0  0
    2.4431    2.6854   -0.8747 H   0  0  0  0  0  0  0  0  0  0  0  0
    2.1803   -0.0436   -2.4592 H   0  0  0  0  0  0  0  0  0  0  0  0
    0.5672   -0.4024   -1.9012 H   0  0  0  0  0  0  0  0  0  0  0  0
    1.0004    1.2449   -2.3337 H   0  0  0  0  0  0  0  0  0  0  0  0
   -0.3700   -0.6426    2.7711 H   0  0  0  0  0  0  0  0  0  0  0  0
   -0.8642    1.0305    2.6871 H   0  0  0  0  0  0  0  0  0  0  0  0
   -2.0031   -0.2462    2.2280 H   0  0  0  0  0  0  0  0  0  0  0  0
   -3.2115    1.4680   -1.0246 H   0  0  0  0  0  0  0  0  0  0  0  0
   -3.2397    0.5740    0.4832 H   0  0  0  0  0  0  0  0  0  0  0  0
   -1.6644   -2.5641   -1.1784 H   0  0  0  0  0  0  0  0  0  0  0  0
   -2.4544   -0.3773   -2.2887 H   0  0  0  0  0  0  0  0  0  0  0  0
   -3.6328   -1.0627   -1.1743 H   0  0  0  0  0  0  0  0  0  0  0  0
   -0.3283    2.9783    0.7731 H   0  0  0  0  0  0  0  0  0  0  0  0
   -1.7856    3.3097   -0.1612 H   0  0  0  0  0  0  0  0  0  0  0  0
   -1.9285    2.5876    1.4394 H   0  0  0  0  0  0  0  0  0  0  0  0
  1  2  1  0  0  0  0
  1  3  1  0  0  0  0
  1  4  1  0  0  0  0
  1 16  1  0  0  0  0
  2  3  1  0  0  0  0
  2  9  1  0  0  0  0
  2 10  1  0  0  0  0
  3  5  1  0  0  0  0
  3 17  1  0  0  0  0
  4  6  1  0  0  0  0
  4  7  1  0  0  0  0
  4 11  1  0  0  0  0
  5  8  1  0  0  0  0
  5 18  1  0  0  0  0
  5 19  1  0  0  0  0
  6  8  1  0  0  0  0
  6 13  2  0  0  0  0
  7 12  1  0  0  0  0
  7 15  1  0  0  0  0
  7 20  1  0  0  0  0
  8 21  1  0  0  0  0
  8 22  1  0  0  0  0
  9 23  1  0  0  0  0
  9 24  1  0  0  0  0
  9 25  1  0  0  0  0
 10 26  1  0  0  0  0
 10 27  1  0  0  0  0
 10 28  1  0  0  0  0
 11 29  1  0  0  0  0
 11 30  1  0  0  0  0
 11 31  1  0  0  0  0
 12 14  1  0  0  0  0
 12 32  1  0  0  0  0
 12 33  1  0  0  0  0
 13 14  1  0  0  0  0
 13 34  1  0  0  0  0
 14 35  1  0  0  0  0
 14 36  1  0  0  0  0
 15 37  1  0  0  0  0
 15 38  1  0  0  0  0
 15 39  1  0  0  0  0
M  END
> <PUBCHEM_COMPOUND_CID>
28481

> <PUBCHEM_CONFORMER_RMSD>
0.6

> <PUBCHEM_CONFORMER_DIVERSEORDER>
1
8
4
5
18
15
19
12
22
14
11
16
2
21
9
6
20
17
7
13
10
3

> <PUBCHEM_MMFF94_PARTIAL_CHARGES>
14
1 -0.19
10 0.09
13 -0.29
14 0.14
16 0.1
17 0.1
2 -0.19
3 -0.19
34 0.15
4 0.23
5 0.09
6 -0.28
8 0.14
9 0.09

> <PUBCHEM_EFFECTIVE_ROTOR_COUNT>
1.2

> <PUBCHEM_PHARMACOPHORE_FEATURES>
3
3 2 9 10 hydrophobe
6 4 6 7 12 13 14 rings
7 1 2 3 4 5 6 8 rings

> <PUBCHEM_HEAVY_ATOM_COUNT>
15

> <PUBCHEM_ATOM_DEF_STEREO_COUNT>
0

> <PUBCHEM_ATOM_UDEF_STEREO_COUNT>
4

> <PUBCHEM_BOND_DEF_STEREO_COUNT>
0

> <PUBCHEM_BOND_UDEF_STEREO_COUNT>
0

> <PUBCHEM_ISOTOPIC_ATOM_COUNT>
0

> <PUBCHEM_COMPONENT_COUNT>
1

> <PUBCHEM_CACTVS_TAUTO_COUNT>
1

> <PUBCHEM_CONFORMER_ID>
00006F4100000001

> <PUBCHEM_MMFF94_ENERGY>
41.2171

> <PUBCHEM_FEATURE_SELFOVERLAP>
15.24

> <PUBCHEM_SHAPE_FINGERPRINT>
10863032 1 18337098081275013054
12202030 40 15410884171962104957
12423570 1 11881534529301092523
12491281 212 18259703419310109068
13024252 1 15649296930431940578
13299463 15 18200879602952893422
13380535 220 17908132188195034631
14181834 199 18188207598752781542
144361 1 18119243965477967354
14817 1 8298293376328955023
15557651 10 17622216417216421216
15775835 57 18341900653633945053
15852999 172 17531239599650641064
16945 1 18191014608498106155
17775402 16 18267295628614454245
18981168 100 17242203260106363372
19837323 101 18263099827707672673
20082192 1 17559691546078704232
20511035 2 17903661586859343800
22344851 262 17978221656429630810
22802520 49 18127998427651181398
23402539 116 18198334246678210380
23419403 2 15024480970851300068
23552423 10 18337097965516793015
23559900 14 18198064875721563204
2748010 2 16679773676232823635
3060560 45 17114080185342265877
3286 77 13768473327874776085
353137 74 18411415141748841853
430814 3 17392248092794951732
4369600 1 18125427859480262941
5084963 1 18130223753149245266
528886 8 18337098085791506691
63268167 104 17897718756523127502
6992083 37 17547282307512907897
7832392 63 17761203319867630589

> <PUBCHEM_SHAPE_MULTIPOLES>
308.69
3.57
2.35
1.47
0.2
0.06
0.18
0.85
-1.11
0.08
0.16
-0.24
0.05
-0.63

> <PUBCHEM_SHAPE_SELFOVERLAP>
649.636

> <PUBCHEM_SHAPE_VOLUME>
175.3

> <PUBCHEM_COORDINATE_TYPE>
2
5
10

$$$$
