167493
  -OEChem-09112015503D

 40 43  0     0  0  0  0  0  0999 V2000
   -0.0901    3.3068   -0.0793 O   0  0  0  0  0  0  0  0  0  0  0  0
    2.2403    3.8585   -0.1572 O   0  0  0  0  0  0  0  0  0  0  0  0
   -3.0590   -2.7813    0.2129 O   0  0  0  0  0  0  0  0  0  0  0  0
   -4.6451    1.6756    0.0882 O   0  0  0  0  0  0  0  0  0  0  0  0
    4.1836   -0.9604    1.2337 O   0  0  0  0  0  0  0  0  0  0  0  0
    4.2838   -1.1686   -1.0275 O   0  0  0  0  0  0  0  0  0  0  0  0
    2.2392   -3.0493   -1.0045 O   0  5  0  0  0  0  0  0  0  0  0  0
    2.2933   -2.9696    1.1886 O   0  0  0  0  0  0  0  0  0  0  0  0
    1.8690   -2.5598    0.0855 N   0  3  0  0  0  0  0  0  0  0  0  0
    0.2202    0.8477    0.0016 C   0  0  0  0  0  0  0  0  0  0  0  0
    1.2525   -0.1338    0.0124 C   0  0  0  0  0  0  0  0  0  0  0  0
   -1.1634    0.4131    0.0507 C   0  0  0  0  0  0  0  0  0  0  0  0
    0.6837    2.1799   -0.0580 C   0  0  0  0  0  0  0  0  0  0  0  0
   -1.4454   -0.9779    0.1084 C   0  0  0  0  0  0  0  0  0  0  0  0
    0.9241   -1.4892    0.0700 C   0  0  0  0  0  0  0  0  0  0  0  0
    2.6180    0.2324   -0.0344 C   0  0  0  0  0  0  0  0  0  0  0  0
    2.0242    2.5153   -0.1032 C   0  0  0  0  0  0  0  0  0  0  0  0
   -0.4015   -1.9045    0.1173 C   0  0  0  0  0  0  0  0  0  0  0  0
    3.0142    1.5644   -0.0930 C   0  0  0  0  0  0  0  0  0  0  0  0
   -2.2895    1.2765    0.0456 C   0  0  0  0  0  0  0  0  0  0  0  0
   -2.7699   -1.4456    0.1571 C   0  0  0  0  0  0  0  0  0  0  0  0
   -3.6033    0.7995    0.0942 C   0  0  0  0  0  0  0  0  0  0  0  0
    0.8930    4.3533   -0.1425 C   0  0  0  0  0  0  0  0  0  0  0  0
   -3.8438   -0.5630    0.1500 C   0  0  0  0  0  0  0  0  0  0  0  0
    3.7561   -0.6868   -0.0259 C   0  0  0  0  0  0  0  0  0  0  0  0
   -3.2251   -3.4553   -1.0302 C   0  0  0  0  0  0  0  0  0  0  0  0
   -5.9591    1.1221    0.1394 C   0  0  0  0  0  0  0  0  0  0  0  0
   -0.6115   -2.9724    0.1704 H   0  0  0  0  0  0  0  0  0  0  0  0
    4.0592    1.8555   -0.1291 H   0  0  0  0  0  0  0  0  0  0  0  0
   -2.1699    2.3542    0.0034 H   0  0  0  0  0  0  0  0  0  0  0  0
    0.7665    5.0077    0.7275 H   0  0  0  0  0  0  0  0  0  0  0  0
    0.7227    4.9418   -1.0513 H   0  0  0  0  0  0  0  0  0  0  0  0
   -4.8371   -0.9970    0.1915 H   0  0  0  0  0  0  0  0  0  0  0  0
   -3.3427   -4.5234   -0.8278 H   0  0  0  0  0  0  0  0  0  0  0  0
   -2.3534   -3.3175   -1.6778 H   0  0  0  0  0  0  0  0  0  0  0  0
   -4.1258   -3.0963   -1.5384 H   0  0  0  0  0  0  0  0  0  0  0  0
    4.9459   -1.5778    1.2351 H   0  0  0  0  0  0  0  0  0  0  0  0
   -6.6634    1.9603    0.1253 H   0  0  0  0  0  0  0  0  0  0  0  0
   -6.1304    0.5771    1.0740 H   0  0  0  0  0  0  0  0  0  0  0  0
   -6.1732    0.5104   -0.7436 H   0  0  0  0  0  0  0  0  0  0  0  0
  1 13  1  0  0  0  0
  1 23  1  0  0  0  0
  2 17  1  0  0  0  0
  2 23  1  0  0  0  0
  3 21  1  0  0  0  0
  3 26  1  0  0  0  0
  4 22  1  0  0  0  0
  4 27  1  0  0  0  0
  5 25  1  0  0  0  0
  5 37  1  0  0  0  0
  6 25  2  0  0  0  0
  7  9  1  0  0  0  0
  8  9  2  0  0  0  0
  9 15  1  0  0  0  0
 10 11  1  0  0  0  0
 10 12  2  0  0  0  0
 10 13  1  0  0  0  0
 11 15  2  0  0  0  0
 11 16  1  0  0  0  0
 12 14  1  0  0  0  0
 12 20  1  0  0  0  0
 13 17  2  0  0  0  0
 14 18  2  0  0  0  0
 14 21  1  0  0  0  0
 15 18  1  0  0  0  0
 16 19  2  0  0  0  0
 16 25  1  0  0  0  0
 17 19  1  0  0  0  0
 18 28  1  0  0  0  0
 19 29  1  0  0  0  0
 20 22  2  0  0  0  0
 20 30  1  0  0  0  0
 21 24  2  0  0  0  0
 22 24  1  0  0  0  0
 23 31  1  0  0  0  0
 23 32  1  0  0  0  0
 24 33  1  0  0  0  0
 26 34  1  0  0  0  0
 26 35  1  0  0  0  0
 26 36  1  0  0  0  0
 27 38  1  0  0  0  0
 27 39  1  0  0  0  0
 27 40  1  0  0  0  0
M  CHG  2   7  -1   9   1
M  END
> <PUBCHEM_COMPOUND_CID>
167493

> <PUBCHEM_CONFORMER_RMSD>
0.8

> <PUBCHEM_CONFORMER_DIVERSEORDER>
1

> <PUBCHEM_MMFF94_PARTIAL_CHARGES>
28
1 -0.36
13 0.08
15 0.13
16 0.09
17 0.08
18 -0.15
19 -0.15
2 -0.36
20 -0.15
21 0.08
22 0.08
23 0.56
24 -0.15
25 0.63
26 0.28
27 0.28
28 0.15
29 0.15
3 -0.36
30 0.15
33 0.15
37 0.5
4 -0.36
5 -0.65
6 -0.57
7 -0.52
8 -0.52
9 0.91

> <PUBCHEM_EFFECTIVE_ROTOR_COUNT>
4.6

> <PUBCHEM_PHARMACOPHORE_FEATURES>
14
1 1 acceptor
1 2 acceptor
1 3 acceptor
1 4 acceptor
1 5 acceptor
1 6 acceptor
1 7 acceptor
1 7 anion
1 8 acceptor
3 5 6 25 anion
5 1 2 13 17 23 rings
6 10 11 12 14 15 18 rings
6 10 11 13 16 17 19 rings
6 12 14 20 21 22 24 rings

> <PUBCHEM_HEAVY_ATOM_COUNT>
27

> <PUBCHEM_ATOM_DEF_STEREO_COUNT>
0

> <PUBCHEM_ATOM_UDEF_STEREO_COUNT>
0

> <PUBCHEM_BOND_DEF_STEREO_COUNT>
0

> <PUBCHEM_BOND_UDEF_STEREO_COUNT>
0

> <PUBCHEM_ISOTOPIC_ATOM_COUNT>
0

> <PUBCHEM_COMPONENT_COUNT>
1

> <PUBCHEM_CACTVS_TAUTO_COUNT>
1

> <PUBCHEM_CONFORMER_ID>
00028E4500000001

> <PUBCHEM_MMFF94_ENERGY>
128.4955

> <PUBCHEM_FEATURE_SELFOVERLAP>
71.406

> <PUBCHEM_SHAPE_FINGERPRINT>
10411042 1 17977667506922688795
10616163 171 18267869569711140743
10906281 52 18335719221233427136
10967382 1 18337954484847866752
1100329 8 18409729568932677241
11578080 2 17345175895934718563
116883 192 18123755244823283262
12403260 363 18049992582796246242
12553582 1 18338228254827185380
12633257 1 18334568027836715515
12788726 201 18117566115630101664
13004483 165 18047177562551974826
13140716 1 18410846698817163768
13583140 156 18114194021000423755
138480 1 18410294718152323744
14178342 30 18268975643727055625
14223421 5 18048040958500138107
14790565 3 18047479112686602236
15081414 286 18268437836707454393
15196674 1 18410294752174068769
15420108 30 18127953377997591810
15442244 35 18338516442753656441
15475509 8 17770528359692594877
1601671 61 18411703145207594250
16087824 20 18049728417150597085
16945 1 18410291380630003152
17492 89 18196092363686081239
19319366 153 17823431404439162963
19591789 44 18122347045052846932
19930381 70 17977944910443982417
20642791 178 18261680392920286948
20642791 35 18411424977403304204
20691752 17 17458895045809719616
20775438 99 17619010336474146439
20905425 154 18052539868387192326
21033648 29 17773576386777491314
21267235 1 18338808805546269987
21421861 104 17825100416166811730
221490 88 18264778842108503690
22393880 68 18268721682300501580
23227448 37 18412262870052046223
2334 1 18266179624665786800
23366157 5 17970345034443893140
23558518 356 18044658839516894443
23559900 14 18342174496485607752
266924 87 17978783842511882743
2748010 2 18337950211861932828
283562 15 17763745795168655387
314173 41 18410017610993478628
3178227 256 18265064553073105049
335352 9 18410294683655058981
34934 24 18410570652267892194
350125 39 18122066674020154225
4409770 3 17826774955085340164
5104073 3 18337674221553042441
5939293 188 18410854378271312776
6443956 14 18409173199069814852
7364860 26 18339082708400711700
7832392 63 18411697686251523915
9709674 26 18192998350818266227
9981440 41 17616527801747669465

> <PUBCHEM_SHAPE_MULTIPOLES>
503.71
8.32
4.82
0.78
7.19
1.7
0
-0.36
-0.09
-1.59
0.52
-0.29
-0.44
-0.64

> <PUBCHEM_SHAPE_SELFOVERLAP>
1141.778

> <PUBCHEM_SHAPE_VOLUME>
263.2

> <PUBCHEM_COORDINATE_TYPE>
2
5
10

$$$$
