6325262
  -OEChem-09302010563D

 49 50  0     1  0  0  0  0  0999 V2000
   -2.1458    0.5834    0.1198 O   0  0  0  0  0  0  0  0  0  0  0  0
   -1.6842   -1.6999   -0.0117 O   0  0  0  0  0  0  0  0  0  0  0  0
   -6.1053   -0.1323    0.9424 O   0  0  0  0  0  0  0  0  0  0  0  0
   -5.2717    2.4910    0.0596 O   0  0  0  0  0  0  0  0  0  0  0  0
   -4.4493   -2.2189   -0.3164 O   0  0  0  0  0  0  0  0  0  0  0  0
   -1.1084    3.0691   -0.4294 O   0  0  0  0  0  0  0  0  0  0  0  0
    0.4627   -1.5245    1.7210 O   0  0  0  0  0  0  0  0  0  0  0  0
    3.0881   -1.7950    1.8650 O   0  0  0  0  0  0  0  0  0  0  0  0
    5.3849    2.9264    0.5261 O   0  0  0  0  0  0  0  0  0  0  0  0
    5.8368    1.6436   -1.2937 O   0  0  0  0  0  0  0  0  0  0  0  0
   -4.9767    0.0992    0.0979 C   0  0  1  0  0  0  0  0  0  0  0  0
   -4.3798    1.4571    0.4680 C   0  0  1  0  0  0  0  0  0  0  0  0
   -3.9579   -1.0242    0.2906 C   0  0  2  0  0  0  0  0  0  0  0  0
   -3.0248    1.6589   -0.2145 C   0  0  1  0  0  0  0  0  0  0  0  0
   -2.6169   -0.6756   -0.3551 C   0  0  1  0  0  0  0  0  0  0  0  0
   -2.3556    2.9553    0.2312 C   0  0  0  0  0  0  0  0  0  0  0  0
   -0.4133   -1.5588   -0.4975 C   0  0  0  0  0  0  0  0  0  0  0  0
    0.6686   -1.4701    0.3736 C   0  0  0  0  0  0  0  0  0  0  0  0
    1.9592   -1.3272   -0.1360 C   0  0  0  0  0  0  0  0  0  0  0  0
    4.3637   -0.4276    0.3439 C   0  0  1  0  0  0  0  0  0  0  0  0
   -0.2152   -1.5060   -1.8746 C   0  0  0  0  0  0  0  0  0  0  0  0
    3.1090   -1.2315    0.7529 C   0  0  0  0  0  0  0  0  0  0  0  0
    2.1625   -1.2736   -1.5151 C   0  0  0  0  0  0  0  0  0  0  0  0
    1.0753   -1.3631   -2.3842 C   0  0  0  0  0  0  0  0  0  0  0  0
    3.9801    1.0387    0.1280 C   0  0  0  0  0  0  0  0  0  0  0  0
    5.4549   -0.5709    1.4092 C   0  0  0  0  0  0  0  0  0  0  0  0
    5.1592    1.8764   -0.3009 C   0  0  0  0  0  0  0  0  0  0  0  0
   -5.3560    0.1037   -0.9314 H   0  0  0  0  0  0  0  0  0  0  0  0
   -4.2764    1.5248    1.5579 H   0  0  0  0  0  0  0  0  0  0  0  0
   -3.8286   -1.2408    1.3577 H   0  0  0  0  0  0  0  0  0  0  0  0
   -3.1344    1.6924   -1.3071 H   0  0  0  0  0  0  0  0  0  0  0  0
   -2.7344   -0.6417   -1.4461 H   0  0  0  0  0  0  0  0  0  0  0  0
   -2.1637    2.9572    1.3093 H   0  0  0  0  0  0  0  0  0  0  0  0
   -2.9603    3.8310   -0.0210 H   0  0  0  0  0  0  0  0  0  0  0  0
   -6.7261    0.6040    0.8069 H   0  0  0  0  0  0  0  0  0  0  0  0
   -5.3638    2.4436   -0.9073 H   0  0  0  0  0  0  0  0  0  0  0  0
   -4.5727   -2.0465   -1.2655 H   0  0  0  0  0  0  0  0  0  0  0  0
   -0.5826    2.2827   -0.2034 H   0  0  0  0  0  0  0  0  0  0  0  0
    4.7716   -0.8624   -0.5754 H   0  0  0  0  0  0  0  0  0  0  0  0
   -1.0456   -1.5946   -2.5688 H   0  0  0  0  0  0  0  0  0  0  0  0
    3.1510   -1.1801   -1.9527 H   0  0  0  0  0  0  0  0  0  0  0  0
    3.2063    1.1641   -0.6363 H   0  0  0  0  0  0  0  0  0  0  0  0
    3.5612    1.4535    1.0539 H   0  0  0  0  0  0  0  0  0  0  0  0
    1.2341   -1.3296   -3.4582 H   0  0  0  0  0  0  0  0  0  0  0  0
    5.6838   -1.6266    1.5939 H   0  0  0  0  0  0  0  0  0  0  0  0
    6.3857   -0.0871    1.0965 H   0  0  0  0  0  0  0  0  0  0  0  0
    5.1444   -0.1267    2.3616 H   0  0  0  0  0  0  0  0  0  0  0  0
    1.2813   -1.3302    2.2038 H   0  0  0  0  0  0  0  0  0  0  0  0
    6.1511    3.4648    0.2338 H   0  0  0  0  0  0  0  0  0  0  0  0
  1 14  1  0  0  0  0
  1 15  1  0  0  0  0
  2 15  1  0  0  0  0
  2 17  1  0  0  0  0
  3 11  1  0  0  0  0
  3 35  1  0  0  0  0
  4 12  1  0  0  0  0
  4 36  1  0  0  0  0
  5 13  1  0  0  0  0
  5 37  1  0  0  0  0
  6 16  1  0  0  0  0
  6 38  1  0  0  0  0
  7 18  1  0  0  0  0
  7 48  1  0  0  0  0
  8 22  2  0  0  0  0
  9 27  1  0  0  0  0
  9 49  1  0  0  0  0
 10 27  2  0  0  0  0
 11 12  1  0  0  0  0
 11 13  1  0  0  0  0
 11 28  1  0  0  0  0
 12 14  1  0  0  0  0
 12 29  1  0  0  0  0
 13 15  1  0  0  0  0
 13 30  1  0  0  0  0
 14 16  1  0  0  0  0
 14 31  1  0  0  0  0
 15 32  1  0  0  0  0
 16 33  1  0  0  0  0
 16 34  1  0  0  0  0
 17 18  1  0  0  0  0
 17 21  2  0  0  0  0
 18 19  2  0  0  0  0
 19 22  1  0  0  0  0
 19 23  1  0  0  0  0
 20 22  1  0  0  0  0
 20 25  1  0  0  0  0
 20 26  1  0  0  0  0
 20 39  1  0  0  0  0
 21 24  1  0  0  0  0
 21 40  1  0  0  0  0
 23 24  2  0  0  0  0
 23 41  1  0  0  0  0
 24 44  1  0  0  0  0
 25 27  1  0  0  0  0
 25 42  1  0  0  0  0
 25 43  1  0  0  0  0
 26 45  1  0  0  0  0
 26 46  1  0  0  0  0
 26 47  1  0  0  0  0
M  END
> <PUBCHEM_COMPOUND_CID>
6325262

> <PUBCHEM_CONFORMER_RMSD>
1

> <PUBCHEM_CONFORMER_DIVERSEORDER>
1
254
115
68
41
216
247
114
24
10
217
105
73
186
137
222
138
88
44
152
134
201
271
168
170
106
92
277
180
249
161
21
205
61
151
80
87
165
172
145
90
181
195
5
269
102
29
210
77
131
95
128
194
12
225
238
167
121
133
72
157
262
117
239
160
175
237
57
246
51
266
208
98
40
251
127
84
154
66
158
39
241
14
143
124
149
96
209
177
187
111
58
129
213
250
256
50
99
166
123
220
116
142
6
226
162
37
49
182
119
86
171
71
190
163
125
52
33
89
31
2
265
28
74
260
189
242
16
85
212
227
176
13
25
140
153
35
108
224
218
206
240
259
78
70
183
144
60
100
215
191
135
174
252
253
274
193
148
43
156
17
65
198
55
76
130
22
257
54
83
264
126
110
120
232
207
107
101
200
75
15
248
97
202
93
56
231
229
46
276
223
243
267
233
63
146
38
122
184
69
214
67
196
159
139
268
47
64
204
234
34
150
155
104
272
132
32
30
275
169
219
270
8
192
112
228
203
278
36
45
103
273
236
18
82
42
244
62
91
164
245
94
26
185
173
53
23
255
118
113
7
3
109
188
4
136
9
235
221
230
11
147
211
178
199
141
81
27
48
258
59
261
263
197
19
20
79
179

> <PUBCHEM_MMFF94_PARTIAL_CHARGES>
35
1 -0.56
10 -0.57
11 0.28
12 0.28
13 0.28
14 0.28
15 0.56
16 0.28
17 0.08
18 0.08
19 0.09
2 -0.36
20 0.06
21 -0.15
22 0.42
23 -0.15
24 -0.15
25 0.06
27 0.66
3 -0.68
35 0.4
36 0.4
37 0.4
38 0.4
4 -0.68
40 0.15
41 0.15
44 0.15
48 0.45
49 0.5
5 -0.68
6 -0.68
7 -0.53
8 -0.57
9 -0.65

> <PUBCHEM_EFFECTIVE_ROTOR_COUNT>
8.2

> <PUBCHEM_PHARMACOPHORE_FEATURES>
18
1 1 acceptor
1 10 acceptor
1 2 acceptor
1 26 hydrophobe
1 3 acceptor
1 3 donor
1 4 acceptor
1 4 donor
1 5 acceptor
1 5 donor
1 6 acceptor
1 6 donor
1 7 donor
1 8 acceptor
1 9 acceptor
3 9 10 27 anion
6 1 11 12 13 14 15 rings
6 17 18 19 21 23 24 rings

> <PUBCHEM_HEAVY_ATOM_COUNT>
27

> <PUBCHEM_ATOM_DEF_STEREO_COUNT>
6

> <PUBCHEM_ATOM_UDEF_STEREO_COUNT>
0

> <PUBCHEM_BOND_DEF_STEREO_COUNT>
0

> <PUBCHEM_BOND_UDEF_STEREO_COUNT>
0

> <PUBCHEM_ISOTOPIC_ATOM_COUNT>
0

> <PUBCHEM_COMPONENT_COUNT>
1

> <PUBCHEM_CACTVS_TAUTO_COUNT>
9

> <PUBCHEM_CONFORMER_ID>
0060840E00000001

> <PUBCHEM_MMFF94_ENERGY>
82.3261

> <PUBCHEM_FEATURE_SELFOVERLAP>
91.473

> <PUBCHEM_SHAPE_FINGERPRINT>
10498660 4 18267308621539312733
10670039 82 17417545635379532184
10906281 52 18272091536017748837
11595378 159 18187365376729227383
12107183 9 17758665655763220162
12403259 118 18341599422150512402
12596602 18 17603585239970439643
12895836 83 17631449145762946744
12895837 130 17768807916807762408
13402501 40 18272929388767073553
13965767 371 17103129088305303925
14251764 38 18269840813550005320
14289585 56 13973700402803466682
14341114 328 18334575745834820186
1454969 45 18130783521270723351
14739800 52 18337102454190004440
14787075 74 18114739433879714378
14840074 17 18272650190397394997
14848178 5 8214152845618981596
15163728 17 18130521759660878118
15475509 35 11242259575451393116
15961568 22 18411425024484810900
17349148 13 16370736893840907115
17980427 23 18335423487012598359
20511986 3 17676478416355301575
21302155 148 18342457036529909081
21623110 236 18341900662688577905
21756936 100 18268141145231222350
23557571 272 18272098145524044135
23559900 14 18055644918703831999
245318 6 17460894031565497628
24771293 8 18201444645732184113
2838139 119 18271802449878935420
3472631 163 18339077073888805765
38570 142 18041576818846909084
392239 28 18113910398054612571
44802255 64 17629217172014296668
5104073 3 18040996224097132811
57527293 21 18131077022008539623
7808743 9 18272366529261029910

> <PUBCHEM_SHAPE_MULTIPOLES>
496.95
13.47
3.18
1.49
1.14
2.52
-0.36
7.36
2.89
-0.19
-0.32
1.45
-0.89
-0.69

> <PUBCHEM_SHAPE_SELFOVERLAP>
1041.293

> <PUBCHEM_SHAPE_VOLUME>
277.3

> <PUBCHEM_COORDINATE_TYPE>
2
5
10

$$$$
