100947536
  -OEChem-09302011263D

 42 45  0     0  0  0  0  0  0999 V2000
    0.8533    1.3352    1.3839 O   0  0  0  0  0  0  0  0  0  0  0  0
    4.0636   -2.3765   -0.7145 O   0  0  0  0  0  0  0  0  0  0  0  0
   -0.7746   -2.0701   -0.5727 O   0  0  0  0  0  0  0  0  0  0  0  0
    2.2129    3.2309    0.3004 O   0  0  0  0  0  0  0  0  0  0  0  0
   -3.7723    1.5834    1.9224 O   0  0  0  0  0  0  0  0  0  0  0  0
   -5.4523    1.6605   -0.0640 O   0  0  0  0  0  0  0  0  0  0  0  0
    1.3416   -0.9635    1.1378 C   0  0  0  0  0  0  0  0  0  0  0  0
    0.1157   -1.2480    1.9660 C   0  0  0  0  0  0  0  0  0  0  0  0
   -1.1153   -0.7092    1.3368 C   0  0  0  0  0  0  0  0  0  0  0  0
    2.1600   -1.9037    0.6288 C   0  0  0  0  0  0  0  0  0  0  0  0
    2.7419    0.8734    0.0558 C   0  0  0  0  0  0  0  0  0  0  0  0
    1.5925    0.4897    0.8905 C   0  0  0  0  0  0  0  0  0  0  0  0
    3.5784   -0.0985   -0.4832 C   0  0  0  0  0  0  0  0  0  0  0  0
    3.3270   -1.5255   -0.2265 C   0  0  0  0  0  0  0  0  0  0  0  0
   -1.4710   -1.2322   -0.0107 C   0  0  0  0  0  0  0  0  0  0  0  0
   -2.6928   -0.7110   -0.6561 C   0  0  0  0  0  0  0  0  0  0  0  0
   -3.4848    0.2434   -0.0156 C   0  0  0  0  0  0  0  0  0  0  0  0
   -1.8855    0.2055    1.9369 C   0  0  0  0  0  0  0  0  0  0  0  0
    2.0215   -3.3854    0.8597 C   0  0  0  0  0  0  0  0  0  0  0  0
   -3.1127    0.7467    1.3181 C   0  0  0  0  0  0  0  0  0  0  0  0
    2.9930    2.2286   -0.1961 C   0  0  0  0  0  0  0  0  0  0  0  0
    4.6692    0.2805   -1.2766 C   0  0  0  0  0  0  0  0  0  0  0  0
   -3.0574   -1.1807   -1.9237 C   0  0  0  0  0  0  0  0  0  0  0  0
   -4.6399    0.7292   -0.6393 C   0  0  0  0  0  0  0  0  0  0  0  0
    4.0798    2.6035   -0.9864 C   0  0  0  0  0  0  0  0  0  0  0  0
    4.9169    1.6305   -1.5260 C   0  0  0  0  0  0  0  0  0  0  0  0
   -4.2095   -0.6947   -2.5432 C   0  0  0  0  0  0  0  0  0  0  0  0
   -4.9990    0.2581   -1.9024 C   0  0  0  0  0  0  0  0  0  0  0  0
   -0.0463   -2.3140    2.1445 H   0  0  0  0  0  0  0  0  0  0  0  0
    0.2723   -0.8181    2.9649 H   0  0  0  0  0  0  0  0  0  0  0  0
   -1.6339    0.5910    2.9204 H   0  0  0  0  0  0  0  0  0  0  0  0
    2.9958   -3.8307    1.0917 H   0  0  0  0  0  0  0  0  0  0  0  0
    1.3745   -3.6479    1.6979 H   0  0  0  0  0  0  0  0  0  0  0  0
    1.6296   -3.8704   -0.0403 H   0  0  0  0  0  0  0  0  0  0  0  0
    5.3374   -0.4594   -1.7092 H   0  0  0  0  0  0  0  0  0  0  0  0
   -2.4589   -1.9232   -2.4446 H   0  0  0  0  0  0  0  0  0  0  0  0
    4.2798    3.6530   -1.1857 H   0  0  0  0  0  0  0  0  0  0  0  0
    5.7630    1.9222   -2.1413 H   0  0  0  0  0  0  0  0  0  0  0  0
   -4.4911   -1.0600   -3.5266 H   0  0  0  0  0  0  0  0  0  0  0  0
   -5.8942    0.6297   -2.3940 H   0  0  0  0  0  0  0  0  0  0  0  0
    1.4763    2.8703    0.8160 H   0  0  0  0  0  0  0  0  0  0  0  0
   -5.1153    1.9188    0.8071 H   0  0  0  0  0  0  0  0  0  0  0  0
  1 12  2  0  0  0  0
  2 14  2  0  0  0  0
  3 15  2  0  0  0  0
  4 21  1  0  0  0  0
  4 41  1  0  0  0  0
  5 20  2  0  0  0  0
  6 24  1  0  0  0  0
  6 42  1  0  0  0  0
  7  8  1  0  0  0  0
  7 10  2  0  0  0  0
  7 12  1  0  0  0  0
  8  9  1  0  0  0  0
  8 29  1  0  0  0  0
  8 30  1  0  0  0  0
  9 15  1  0  0  0  0
  9 18  2  0  0  0  0
 10 14  1  0  0  0  0
 10 19  1  0  0  0  0
 11 12  1  0  0  0  0
 11 13  2  0  0  0  0
 11 21  1  0  0  0  0
 13 14  1  0  0  0  0
 13 22  1  0  0  0  0
 15 16  1  0  0  0  0
 16 17  2  0  0  0  0
 16 23  1  0  0  0  0
 17 20  1  0  0  0  0
 17 24  1  0  0  0  0
 18 20  1  0  0  0  0
 18 31  1  0  0  0  0
 19 32  1  0  0  0  0
 19 33  1  0  0  0  0
 19 34  1  0  0  0  0
 21 25  2  0  0  0  0
 22 26  2  0  0  0  0
 22 35  1  0  0  0  0
 23 27  2  0  0  0  0
 23 36  1  0  0  0  0
 24 28  2  0  0  0  0
 25 26  1  0  0  0  0
 25 37  1  0  0  0  0
 26 38  1  0  0  0  0
 27 28  1  0  0  0  0
 27 39  1  0  0  0  0
 28 40  1  0  0  0  0
M  END
> <PUBCHEM_COMPOUND_CID>
100947536

> <PUBCHEM_CONFORMER_RMSD>
0.6

> <PUBCHEM_CONFORMER_DIVERSEORDER>
1
18
2
16
7
9
13
11
17
8
3
10
15
5
6
12
14
4

> <PUBCHEM_MMFF94_PARTIAL_CHARGES>
37
1 -0.57
10 -0.12
11 0.09
12 0.47
13 0.09
14 0.47
15 0.47
16 0.09
17 0.09
18 -0.14
19 0.14
2 -0.57
20 0.47
21 0.08
22 -0.15
23 -0.15
24 0.08
25 -0.15
26 -0.15
27 -0.15
28 -0.15
3 -0.57
31 0.15
35 0.15
36 0.15
37 0.15
38 0.15
39 0.15
4 -0.53
40 0.15
41 0.45
42 0.45
5 -0.57
6 -0.53
7 -0.12
8 0.28
9 -0.12

> <PUBCHEM_EFFECTIVE_ROTOR_COUNT>
2

> <PUBCHEM_PHARMACOPHORE_FEATURES>
10
1 1 acceptor
1 2 acceptor
1 3 acceptor
1 4 donor
1 5 acceptor
1 6 donor
6 11 13 21 22 25 26 rings
6 16 17 23 24 27 28 rings
6 7 10 11 12 13 14 rings
6 9 15 16 17 18 20 rings

> <PUBCHEM_HEAVY_ATOM_COUNT>
28

> <PUBCHEM_ATOM_DEF_STEREO_COUNT>
0

> <PUBCHEM_ATOM_UDEF_STEREO_COUNT>
0

> <PUBCHEM_BOND_DEF_STEREO_COUNT>
0

> <PUBCHEM_BOND_UDEF_STEREO_COUNT>
0

> <PUBCHEM_ISOTOPIC_ATOM_COUNT>
0

> <PUBCHEM_COMPONENT_COUNT>
1

> <PUBCHEM_CACTVS_TAUTO_COUNT>
551

> <PUBCHEM_CONFORMER_ID>
0604565000000001

> <PUBCHEM_MMFF94_ENERGY>
82.3876

> <PUBCHEM_FEATURE_SELFOVERLAP>
50.79

> <PUBCHEM_SHAPE_FINGERPRINT>
10165383 225 16806465624939687307
10369192 42 17388001865030445876
10498660 4 17822566204825449541
105312 117 17896891065466140900
10928967 22 16629387233404436175
11112241 14 17968656141734222757
11578080 2 17313402105250580131
11720765 8 17680968735733056010
11796584 16 15123241978839180860
12035759 4 18202562869556119739
12730499 353 18113908168856062691
12769317 202 18259983786496272680
12788726 201 17631465479059785857
13782708 43 17096108899319018962
13965767 371 12613573711507833110
14848178 96 18187646959349399228
14950920 106 11098120206562234452
15163728 17 17604436318200584358
16752209 62 17203888556933550815
1813 80 17908138776992118474
19862831 5 17989207078897625355
20511986 3 17988348313425269236
21033648 29 16660363649912589597
21033650 10 16988577774576544690
21781051 124 17346875685678149927
22122407 14 17972892367248175585
22393880 68 17774724267978904804
22907989 373 17702674400624013451
23559900 14 16271917238232673169
238 59 18338794640970903170
392239 28 11604836754450814300
469060 322 16082221881922673083
474 4 18334293184331695034
5081480 168 18043553641320744790
574716 61 18342736329937195949
5969126 39 17687740542266518722
633830 44 18187642466924032955
7064713 232 13190332465895520485
7471813 234 18268144258929544298
7808743 9 16081380695091666942

> <PUBCHEM_SHAPE_MULTIPOLES>
541.01
11
2.91
2.06
4.12
0.29
-0.2
-5.44
-5.98
-3.8
0.19
2.21
-0.01
-1.09

> <PUBCHEM_SHAPE_SELFOVERLAP>
1225.488

> <PUBCHEM_SHAPE_VOLUME>
278.3

> <PUBCHEM_COORDINATE_TYPE>
2
5
10

$$$$
