92468470
  -OEChem-09302010563D

 28 28  0     1  0  0  0  0  0999 V2000
   -0.2897    1.5998    1.4811 O   0  0  0  0  0  0  0  0  0  0  0  0
    2.1806    1.9541   -0.1665 O   0  0  0  0  0  0  0  0  0  0  0  0
   -3.6029   -1.9093   -0.1890 O   0  0  0  0  0  0  0  0  0  0  0  0
    4.4312    0.4240   -0.6521 O   0  0  0  0  0  0  0  0  0  0  0  0
   -4.7919   -0.0156   -0.5907 O   0  0  0  0  0  0  0  0  0  0  0  0
   -1.5622    0.5444   -0.2729 C   0  0  2  0  0  0  0  0  0  0  0  0
   -2.7222    0.1467    0.6440 C   0  0  0  0  0  0  0  0  0  0  0  0
   -0.3082    0.7720    0.5708 C   0  0  0  0  0  0  0  0  0  0  0  0
   -1.8836    1.8167   -1.0630 C   0  0  0  0  0  0  0  0  0  0  0  0
    0.9220   -0.0266    0.3031 C   0  0  0  0  0  0  0  0  0  0  0  0
    2.1176    0.5959   -0.0552 C   0  0  0  0  0  0  0  0  0  0  0  0
    0.8653   -1.4159    0.4154 C   0  0  0  0  0  0  0  0  0  0  0  0
   -3.8170   -0.5734   -0.1037 C   0  0  0  0  0  0  0  0  0  0  0  0
    3.2566   -0.1706   -0.3014 C   0  0  0  0  0  0  0  0  0  0  0  0
    2.0044   -2.1825    0.1693 C   0  0  0  0  0  0  0  0  0  0  0  0
    3.2001   -1.5597   -0.1891 C   0  0  0  0  0  0  0  0  0  0  0  0
   -1.3619   -0.2596   -0.9915 H   0  0  0  0  0  0  0  0  0  0  0  0
   -3.1613    1.0181    1.1450 H   0  0  0  0  0  0  0  0  0  0  0  0
   -2.3807   -0.5141    1.4512 H   0  0  0  0  0  0  0  0  0  0  0  0
   -2.1068    2.6569   -0.3962 H   0  0  0  0  0  0  0  0  0  0  0  0
   -1.0294    2.1096   -1.6834 H   0  0  0  0  0  0  0  0  0  0  0  0
   -2.7437    1.6645   -1.7224 H   0  0  0  0  0  0  0  0  0  0  0  0
   -0.0584   -1.9145    0.6975 H   0  0  0  0  0  0  0  0  0  0  0  0
    1.9606   -3.2641    0.2576 H   0  0  0  0  0  0  0  0  0  0  0  0
    4.0798   -2.1692   -0.3778 H   0  0  0  0  0  0  0  0  0  0  0  0
    1.3149    2.3515    0.0202 H   0  0  0  0  0  0  0  0  0  0  0  0
   -4.3188   -2.3644   -0.6815 H   0  0  0  0  0  0  0  0  0  0  0  0
    5.1077   -0.2626   -0.7821 H   0  0  0  0  0  0  0  0  0  0  0  0
  1  8  2  0  0  0  0
  2 11  1  0  0  0  0
  2 26  1  0  0  0  0
  3 13  1  0  0  0  0
  3 27  1  0  0  0  0
  4 14  1  0  0  0  0
  4 28  1  0  0  0  0
  5 13  2  0  0  0  0
  6  7  1  0  0  0  0
  6  8  1  0  0  0  0
  6  9  1  0  0  0  0
  6 17  1  0  0  0  0
  7 13  1  0  0  0  0
  7 18  1  0  0  0  0
  7 19  1  0  0  0  0
  8 10  1  0  0  0  0
  9 20  1  0  0  0  0
  9 21  1  0  0  0  0
  9 22  1  0  0  0  0
 10 11  2  0  0  0  0
 10 12  1  0  0  0  0
 11 14  1  0  0  0  0
 12 15  2  0  0  0  0
 12 23  1  0  0  0  0
 14 16  2  0  0  0  0
 15 16  1  0  0  0  0
 15 24  1  0  0  0  0
 16 25  1  0  0  0  0
M  END
> <PUBCHEM_COMPOUND_CID>
92468470

> <PUBCHEM_CONFORMER_RMSD>
0.6

> <PUBCHEM_CONFORMER_DIVERSEORDER>
1
34
27
59
56
87
92
18
71
31
40
2
45
74
73
62
15
16
83
69
3
81
65
79
47
82
50
60
88
10
64
44
53
85
70
86
25
93
11
13
78
32
39
6
5
38
51
66
19
48
28
67
61
46
72
26
17
68
54
89
14
76
23
63
24
80
7
9
41
4
52
91
22
57
33
42
90
20
75
35
43
30
21
49
58
29
8
77
36
12
55
84
37

> <PUBCHEM_MMFF94_PARTIAL_CHARGES>
21
1 -0.57
10 0.09
11 0.08
12 -0.15
13 0.66
14 0.08
15 -0.15
16 -0.15
2 -0.53
23 0.15
24 0.15
25 0.15
26 0.45
27 0.5
28 0.45
3 -0.65
4 -0.53
5 -0.57
6 0.06
7 0.06
8 0.42

> <PUBCHEM_EFFECTIVE_ROTOR_COUNT>
4

> <PUBCHEM_PHARMACOPHORE_FEATURES>
8
1 1 acceptor
1 2 donor
1 3 acceptor
1 4 donor
1 5 acceptor
1 9 hydrophobe
3 3 5 13 anion
6 10 11 12 14 15 16 rings

> <PUBCHEM_HEAVY_ATOM_COUNT>
16

> <PUBCHEM_ATOM_DEF_STEREO_COUNT>
1

> <PUBCHEM_ATOM_UDEF_STEREO_COUNT>
0

> <PUBCHEM_BOND_DEF_STEREO_COUNT>
0

> <PUBCHEM_BOND_UDEF_STEREO_COUNT>
0

> <PUBCHEM_ISOTOPIC_ATOM_COUNT>
0

> <PUBCHEM_COMPONENT_COUNT>
1

> <PUBCHEM_CACTVS_TAUTO_COUNT>
71

> <PUBCHEM_CONFORMER_ID>
0582F4F600000001

> <PUBCHEM_MMFF94_ENERGY>
38.9662

> <PUBCHEM_FEATURE_SELFOVERLAP>
40.658

> <PUBCHEM_SHAPE_FINGERPRINT>
11471102 20 18409730651348870606
11759241 127 17748830730315715806
11769659 78 18338515235793876346
11806522 49 18412827975904911570
13705890 14 18339077091031634614
14251717 144 18409168813712929134
14252887 29 17203616990409143942
14576447 43 18342454871850496374
15375462 189 18272096010824941475
15375462 6 18334012770027147316
15477762 27 18410294692419060054
15852999 172 14779554465191347096
15906896 17 17055836936952653865
16945 1 18334576854062950696
17834074 16 18410573998442684359
18522851 268 18187642462228165301
19422 9 18130795555193728985
200 152 18343019973629609395
20201158 50 18407762525482566731
20281407 28 18411697695110256651
20281475 54 18413668015794831659
20361792 2 17203029816882669873
20645477 70 18411416185732083903
20871999 31 17967805077380502799
21501502 16 18116712915528097001
221490 88 18335990838854160946
22169311 14 11455881468844666708
22485316 2 18343017796424081575
23402539 116 17313099769738739372
23402655 69 18335702710940986093
23557571 272 17530959172957388733
23559900 14 18337945706251140538
25610 137 18342460322258700160
2871803 45 18334290951054390895
465052 167 17703789280114338591
58051976 378 18409167718617432294
581208 293 18410007775354801536
83771 10 18342175548984314025

> <PUBCHEM_SHAPE_MULTIPOLES>
299.93
7.61
2.05
0.9
3.49
0.28
0.12
1.88
-1.89
-0.36
-0.07
0.23
-0.3
-0.04

> <PUBCHEM_SHAPE_SELFOVERLAP>
623.812

> <PUBCHEM_SHAPE_VOLUME>
170

> <PUBCHEM_COORDINATE_TYPE>
2
5
10

$$$$
