68486
  -OEChem-09302011283D

 34 35  0     0  0  0  0  0  0999 V2000
   -3.1786    0.4778   -0.5172 O   0  0  0  0  0  0  0  0  0  0  0  0
    1.0592    2.6751   -0.3703 O   0  0  0  0  0  0  0  0  0  0  0  0
   -5.2061   -0.5853   -0.5850 O   0  0  0  0  0  0  0  0  0  0  0  0
    0.8861    0.4269    0.4461 C   0  0  0  0  0  0  0  0  0  0  0  0
    2.3389    0.4043    0.7918 C   0  0  0  0  0  0  0  0  0  0  0  0
   -1.2513   -0.7060    0.3816 C   0  0  0  0  0  0  0  0  0  0  0  0
    0.3089    1.5652   -0.1216 C   0  0  0  0  0  0  0  0  0  0  0  0
    0.1090   -0.7075    0.6979 C   0  0  0  0  0  0  0  0  0  0  0  0
   -1.8094    0.4374   -0.1838 C   0  0  0  0  0  0  0  0  0  0  0  0
   -1.0473    1.5751   -0.4405 C   0  0  0  0  0  0  0  0  0  0  0  0
    3.2039   -0.0880   -0.3416 C   0  0  0  0  0  0  0  0  0  0  0  0
    4.0018   -1.1727   -0.3666 C   0  0  0  0  0  0  0  0  0  0  0  0
   -2.1047   -1.8570    0.6223 C   0  0  0  0  0  0  0  0  0  0  0  0
   -3.4006   -1.8109    0.3034 C   0  0  0  0  0  0  0  0  0  0  0  0
    4.8402   -1.6065   -1.5355 C   0  0  0  0  0  0  0  0  0  0  0  0
    4.1180   -2.0608    0.8438 C   0  0  0  0  0  0  0  0  0  0  0  0
   -4.0146   -0.6119   -0.2966 C   0  0  0  0  0  0  0  0  0  0  0  0
    1.1465    3.6448    0.6717 C   0  0  0  0  0  0  0  0  0  0  0  0
    2.6935    1.4055    1.0611 H   0  0  0  0  0  0  0  0  0  0  0  0
    2.4797   -0.1671    1.7146 H   0  0  0  0  0  0  0  0  0  0  0  0
    0.5646   -1.5914    1.1392 H   0  0  0  0  0  0  0  0  0  0  0  0
   -1.5037    2.4558   -0.8829 H   0  0  0  0  0  0  0  0  0  0  0  0
    3.1719    0.5268   -1.2409 H   0  0  0  0  0  0  0  0  0  0  0  0
   -1.6738   -2.7493    1.0627 H   0  0  0  0  0  0  0  0  0  0  0  0
   -4.0439   -2.6661    0.4799 H   0  0  0  0  0  0  0  0  0  0  0  0
    4.7453   -0.9133   -2.3777 H   0  0  0  0  0  0  0  0  0  0  0  0
    5.8970   -1.6466   -1.2527 H   0  0  0  0  0  0  0  0  0  0  0  0
    4.5309   -2.5977   -1.8821 H   0  0  0  0  0  0  0  0  0  0  0  0
    3.2270   -2.0679    1.4752 H   0  0  0  0  0  0  0  0  0  0  0  0
    4.2654   -3.1021    0.5342 H   0  0  0  0  0  0  0  0  0  0  0  0
    4.9821   -1.7653    1.4473 H   0  0  0  0  0  0  0  0  0  0  0  0
    1.9920    4.3042    0.4570 H   0  0  0  0  0  0  0  0  0  0  0  0
    1.3025    3.1802    1.6506 H   0  0  0  0  0  0  0  0  0  0  0  0
    0.2313    4.2447    0.6923 H   0  0  0  0  0  0  0  0  0  0  0  0
  1  9  1  0  0  0  0
  1 17  1  0  0  0  0
  2  7  1  0  0  0  0
  2 18  1  0  0  0  0
  3 17  2  0  0  0  0
  4  5  1  0  0  0  0
  4  7  2  0  0  0  0
  4  8  1  0  0  0  0
  5 11  1  0  0  0  0
  5 19  1  0  0  0  0
  5 20  1  0  0  0  0
  6  8  2  0  0  0  0
  6  9  1  0  0  0  0
  6 13  1  0  0  0  0
  7 10  1  0  0  0  0
  8 21  1  0  0  0  0
  9 10  2  0  0  0  0
 10 22  1  0  0  0  0
 11 12  2  0  0  0  0
 11 23  1  0  0  0  0
 12 15  1  0  0  0  0
 12 16  1  0  0  0  0
 13 14  2  0  0  0  0
 13 24  1  0  0  0  0
 14 17  1  0  0  0  0
 14 25  1  0  0  0  0
 15 26  1  0  0  0  0
 15 27  1  0  0  0  0
 15 28  1  0  0  0  0
 16 29  1  0  0  0  0
 16 30  1  0  0  0  0
 16 31  1  0  0  0  0
 18 32  1  0  0  0  0
 18 33  1  0  0  0  0
 18 34  1  0  0  0  0
M  END
> <PUBCHEM_COMPOUND_CID>
68486

> <PUBCHEM_CONFORMER_RMSD>
0.6

> <PUBCHEM_CONFORMER_DIVERSEORDER>
1
20
23
18
24
13
3
21
22
6
5
16
12
4
15
11
2
8
10
19
7
17
14
9

> <PUBCHEM_MMFF94_PARTIAL_CHARGES>
23
1 -0.23
10 -0.15
11 -0.29
12 -0.28
13 -0.18
14 -0.14
15 0.14
16 0.14
17 0.71
18 0.28
2 -0.36
21 0.15
22 0.15
23 0.15
24 0.15
25 0.15
3 -0.57
4 -0.14
5 0.28
6 0.03
7 0.08
8 -0.15
9 0.08

> <PUBCHEM_EFFECTIVE_ROTOR_COUNT>
3

> <PUBCHEM_PHARMACOPHORE_FEATURES>
5
1 2 acceptor
1 3 acceptor
3 12 15 16 hydrophobe
6 1 6 9 13 14 17 rings
6 4 6 7 8 9 10 rings

> <PUBCHEM_HEAVY_ATOM_COUNT>
18

> <PUBCHEM_ATOM_DEF_STEREO_COUNT>
0

> <PUBCHEM_ATOM_UDEF_STEREO_COUNT>
0

> <PUBCHEM_BOND_DEF_STEREO_COUNT>
0

> <PUBCHEM_BOND_UDEF_STEREO_COUNT>
0

> <PUBCHEM_ISOTOPIC_ATOM_COUNT>
0

> <PUBCHEM_COMPONENT_COUNT>
1

> <PUBCHEM_CACTVS_TAUTO_COUNT>
1

> <PUBCHEM_CONFORMER_ID>
00010B8600000001

> <PUBCHEM_MMFF94_ENERGY>
59.5822

> <PUBCHEM_FEATURE_SELFOVERLAP>
25.399

> <PUBCHEM_SHAPE_FINGERPRINT>
10465860 71 18259991474287253150
1100329 8 18269277859323268257
11543360 7 15140966170445158459
11680986 33 18191024710546036121
12032990 46 18410573985167392419
12363563 72 18341903965438897846
12553582 1 18336559235084557242
12596602 18 14476947991676342158
12788726 201 18191028911235074322
13134695 92 17703783769012122537
13533116 47 18199751521888499339
13955234 65 18054227901829351401
14115302 16 17821734956886656183
14178000 29 18272090513018726742
14790565 3 17546166298879863848
14866123 147 17837496249764494137
14911166 2 18260544524488860591
15475509 8 18198919006644320189
15536298 74 18192708058658760265
15848700 24 18413384332888432638
16752209 62 18115016390624500906
16945 1 18261094284597787425
17041 50 18335698368702669465
17804303 29 18334858329277031519
1813 80 18060151920282371636
18186145 218 17750782415458887631
18222031 100 18273494572235221054
19141452 34 18131067160452209775
19591789 44 17043741110392311984
20374829 77 18410009910249394882
20645477 70 18265607874271641567
20671657 53 18411984671523653777
20832881 197 18335137566454442547
20871999 31 18260555489418898702
21029758 11 18410572890030028664
21250096 35 18410012122189135858
21296965 67 18342175553300607736
21307412 95 18342184340836078639
221490 88 18190184683467366419
2215653 11 18411976962505737799
22182313 1 17970042604543408797
23175994 123 18413111658299568605
23402539 116 18268705026332541550
23557571 272 18341044121966427016
23559900 14 18339355374425696888
2748010 2 17898564534710868529
2871803 45 18336268964215400974
3004659 81 17894910668968326026
314173 41 18410579495985239318
314173 85 18342463612583541554
335352 9 18408881803129938349
5104073 3 18190175888159958145
7364860 26 18196371644124121880
7808743 9 9510300046654807546
81228 2 18195818366727052352
84936 31 17772744103535547872
9709674 26 18191584374886665603
9971528 1 18272365403610281400

> <PUBCHEM_SHAPE_MULTIPOLES>
352.82
8.74
2.97
0.98
0.37
2.79
-0.09
-7.15
-2.47
1.43
0.44
0.74
-0.23
0.68

> <PUBCHEM_SHAPE_SELFOVERLAP>
745.079

> <PUBCHEM_SHAPE_VOLUME>
198.5

> <PUBCHEM_COORDINATE_TYPE>
2
5
10

$$$$
