44258239
  -OEChem-09302011133D

 53 56  0     1  0  0  0  0  0999 V2000
    4.1692   -0.8652   -0.6416 O   0  0  0  0  0  0  0  0  0  0  0  0
    3.8832   -0.2161    2.1218 O   0  0  0  0  0  0  0  0  0  0  0  0
    6.2120    1.3360    2.2332 O   0  0  0  0  0  0  0  0  0  0  0  0
    7.6519    0.0618    0.0713 O   0  0  0  0  0  0  0  0  0  0  0  0
    5.3936   -2.3684   -2.5735 O   0  0  0  0  0  0  0  0  0  0  0  0
    1.6774    2.3938   -0.7317 O   0  0  0  0  0  0  0  0  0  0  0  0
    2.3571   -2.1677    0.4942 O   0  0  0  0  0  0  0  0  0  0  0  0
   -2.0774   -0.5399    0.1166 O   0  0  0  0  0  0  0  0  0  0  0  0
   -0.7970    3.1906   -0.9048 O   0  0  0  0  0  0  0  0  0  0  0  0
   -6.6714   -1.2126    2.5080 O   0  0  0  0  0  0  0  0  0  0  0  0
   -7.4120   -0.0401   -2.0761 O   0  0  0  0  0  0  0  0  0  0  0  0
   -8.3790   -0.9916    0.3384 O   0  0  0  0  0  0  0  0  0  0  0  0
    4.1165    0.7960    1.1389 C   0  0  1  0  0  0  0  0  0  0  0  0
    5.6244    1.0056    0.9778 C   0  0  2  0  0  0  0  0  0  0  0  0
    3.5212    0.3366   -0.2014 C   0  0  2  0  0  0  0  0  0  0  0  0
    6.2954   -0.2391    0.3886 C   0  0  1  0  0  0  0  0  0  0  0  0
    5.5679   -0.6865   -0.8862 C   0  0  1  0  0  0  0  0  0  0  0  0
    2.0220    0.1257   -0.1225 C   0  0  0  0  0  0  0  0  0  0  0  0
    6.1139   -2.0118   -1.4079 C   0  0  0  0  0  0  0  0  0  0  0  0
    1.1513    1.1813   -0.3958 C   0  0  0  0  0  0  0  0  0  0  0  0
    1.5174   -1.1284    0.2246 C   0  0  0  0  0  0  0  0  0  0  0  0
   -0.2278    0.9730   -0.3195 C   0  0  0  0  0  0  0  0  0  0  0  0
    0.1394   -1.3324    0.2998 C   0  0  0  0  0  0  0  0  0  0  0  0
   -0.7336   -0.2789    0.0266 C   0  0  0  0  0  0  0  0  0  0  0  0
   -1.1707    2.0664   -0.6003 C   0  0  0  0  0  0  0  0  0  0  0  0
   -2.9691    0.4858   -0.1578 C   0  0  0  0  0  0  0  0  0  0  0  0
   -2.6057    1.7337   -0.4936 C   0  0  0  0  0  0  0  0  0  0  0  0
   -4.3881    0.0980   -0.0275 C   0  0  0  0  0  0  0  0  0  0  0  0
   -5.2450    0.2107   -1.1222 C   0  0  0  0  0  0  0  0  0  0  0  0
   -4.8714   -0.3807    1.1903 C   0  0  0  0  0  0  0  0  0  0  0  0
   -6.2117   -0.7466    1.3132 C   0  0  0  0  0  0  0  0  0  0  0  0
   -6.5854   -0.1551   -0.9993 C   0  0  0  0  0  0  0  0  0  0  0  0
   -7.0688   -0.6337    0.2184 C   0  0  0  0  0  0  0  0  0  0  0  0
    3.6399    1.7117    1.5054 H   0  0  0  0  0  0  0  0  0  0  0  0
    5.8073    1.8612    0.3152 H   0  0  0  0  0  0  0  0  0  0  0  0
    3.7208    1.0941   -0.9710 H   0  0  0  0  0  0  0  0  0  0  0  0
    6.3113   -1.0412    1.1354 H   0  0  0  0  0  0  0  0  0  0  0  0
    5.6823    0.0610   -1.6831 H   0  0  0  0  0  0  0  0  0  0  0  0
    5.9699   -2.8088   -0.6708 H   0  0  0  0  0  0  0  0  0  0  0  0
    7.1765   -1.9380   -1.6583 H   0  0  0  0  0  0  0  0  0  0  0  0
    4.1562   -1.0723    1.7515 H   0  0  0  0  0  0  0  0  0  0  0  0
    5.7555    2.1252    2.5715 H   0  0  0  0  0  0  0  0  0  0  0  0
    7.6553    0.7713   -0.5936 H   0  0  0  0  0  0  0  0  0  0  0  0
   -0.2592   -2.3072    0.5698 H   0  0  0  0  0  0  0  0  0  0  0  0
    5.7538   -3.2160   -2.8855 H   0  0  0  0  0  0  0  0  0  0  0  0
    0.9755    3.0401   -0.9002 H   0  0  0  0  0  0  0  0  0  0  0  0
    1.8294   -2.9538    0.7160 H   0  0  0  0  0  0  0  0  0  0  0  0
   -3.3220    2.5232   -0.6916 H   0  0  0  0  0  0  0  0  0  0  0  0
   -4.8720    0.5786   -2.0758 H   0  0  0  0  0  0  0  0  0  0  0  0
   -4.2056   -0.4674    2.0464 H   0  0  0  0  0  0  0  0  0  0  0  0
   -5.9392   -1.2220    3.1481 H   0  0  0  0  0  0  0  0  0  0  0  0
   -6.9051    0.3076   -2.8299 H   0  0  0  0  0  0  0  0  0  0  0  0
   -8.5312   -1.2982    1.2492 H   0  0  0  0  0  0  0  0  0  0  0  0
  1 15  1  0  0  0  0
  1 17  1  0  0  0  0
  2 13  1  0  0  0  0
  2 41  1  0  0  0  0
  3 14  1  0  0  0  0
  3 42  1  0  0  0  0
  4 16  1  0  0  0  0
  4 43  1  0  0  0  0
  5 19  1  0  0  0  0
  5 45  1  0  0  0  0
  6 20  1  0  0  0  0
  6 46  1  0  0  0  0
  7 21  1  0  0  0  0
  7 47  1  0  0  0  0
  8 24  1  0  0  0  0
  8 26  1  0  0  0  0
  9 25  2  0  0  0  0
 10 31  1  0  0  0  0
 10 51  1  0  0  0  0
 11 32  1  0  0  0  0
 11 52  1  0  0  0  0
 12 33  1  0  0  0  0
 12 53  1  0  0  0  0
 13 14  1  0  0  0  0
 13 15  1  0  0  0  0
 13 34  1  0  0  0  0
 14 16  1  0  0  0  0
 14 35  1  0  0  0  0
 15 18  1  0  0  0  0
 15 36  1  0  0  0  0
 16 17  1  0  0  0  0
 16 37  1  0  0  0  0
 17 19  1  0  0  0  0
 17 38  1  0  0  0  0
 18 20  2  0  0  0  0
 18 21  1  0  0  0  0
 19 39  1  0  0  0  0
 19 40  1  0  0  0  0
 20 22  1  0  0  0  0
 21 23  2  0  0  0  0
 22 24  2  0  0  0  0
 22 25  1  0  0  0  0
 23 24  1  0  0  0  0
 23 44  1  0  0  0  0
 25 27  1  0  0  0  0
 26 27  2  0  0  0  0
 26 28  1  0  0  0  0
 27 48  1  0  0  0  0
 28 29  2  0  0  0  0
 28 30  1  0  0  0  0
 29 32  1  0  0  0  0
 29 49  1  0  0  0  0
 30 31  2  0  0  0  0
 30 50  1  0  0  0  0
 31 33  1  0  0  0  0
 32 33  2  0  0  0  0
M  END
> <PUBCHEM_COMPOUND_CID>
44258239

> <PUBCHEM_CONFORMER_RMSD>
0.8

> <PUBCHEM_CONFORMER_DIVERSEORDER>
1
12
6
17
14
18
5
19
9
26
13
27
10
21
11
7
23
4
22
15
24
20
8
25
3
16
2

> <PUBCHEM_MMFF94_PARTIAL_CHARGES>
46
1 -0.56
10 -0.53
11 -0.53
12 -0.53
13 0.28
14 0.28
15 0.42
16 0.28
17 0.28
18 -0.14
19 0.28
2 -0.68
20 0.08
21 0.08
22 0.09
23 -0.15
24 0.08
25 0.47
26 0.05
27 -0.14
28 0.03
29 -0.15
3 -0.68
30 -0.15
31 0.08
32 0.08
33 0.08
4 -0.68
41 0.4
42 0.4
43 0.4
44 0.15
45 0.4
46 0.45
47 0.45
48 0.15
49 0.15
5 -0.68
50 0.15
51 0.45
52 0.45
53 0.45
6 -0.53
7 -0.53
8 -0.16
9 -0.57

> <PUBCHEM_EFFECTIVE_ROTOR_COUNT>
4.2

> <PUBCHEM_PHARMACOPHORE_FEATURES>
20
1 1 acceptor
1 10 donor
1 11 donor
1 12 donor
1 2 acceptor
1 2 donor
1 3 acceptor
1 3 donor
1 4 acceptor
1 4 donor
1 5 acceptor
1 5 donor
1 6 donor
1 7 donor
1 8 acceptor
1 9 acceptor
6 1 13 14 15 16 17 rings
6 18 20 21 22 23 24 rings
6 28 29 30 31 32 33 rings
6 8 22 24 25 26 27 rings

> <PUBCHEM_HEAVY_ATOM_COUNT>
33

> <PUBCHEM_ATOM_DEF_STEREO_COUNT>
3

> <PUBCHEM_ATOM_UDEF_STEREO_COUNT>
2

> <PUBCHEM_BOND_DEF_STEREO_COUNT>
0

> <PUBCHEM_BOND_UDEF_STEREO_COUNT>
0

> <PUBCHEM_ISOTOPIC_ATOM_COUNT>
0

> <PUBCHEM_COMPONENT_COUNT>
1

> <PUBCHEM_CACTVS_TAUTO_COUNT>
195

> <PUBCHEM_CONFORMER_ID>
02A353BF00000001

> <PUBCHEM_MMFF94_ENERGY>
104.223

> <PUBCHEM_FEATURE_SELFOVERLAP>
101.57

> <PUBCHEM_SHAPE_FINGERPRINT>
10 15 18187076308609280568
10076449 9 18201731618023933950
10165383 225 17917708059539455528
10299344 5 16487536948796866647
11646440 116 18412266155100985401
11719270 70 17748819705024540226
11796584 16 15791447128252572681
11963148 33 17968090949528960971
12107698 1 16200433572073896171
12120059 9 18262219093546565875
12166972 35 18202849854765446696
12236239 1 17561363989722722429
12516196 113 18408319995558806541
12596602 18 17346599673261315243
12730499 353 18202562865989308462
13533116 47 17418096495052703814
13617811 41 18113624473824079508
13673619 4 18130795504002378684
13782708 43 18201160932096343454
14068700 675 17022621974788204621
14170010 4 18342737442360222616
14251764 18 16200431381624756575
14849402 71 16845003645111590377
15131766 46 15337402805367451088
15183329 4 15864067663806792029
15301273 46 18342740689561135769
15849732 13 18342735235010575751
19301679 30 15266516002693322830
19841028 212 16226591998019435784
21130935 74 17704074001606588687
21150785 3 14562533998520402067
21267235 1 18334861614579100317
21521721 280 17846497062825079834
21781051 124 17749688362128462074
21792938 703 18201155572373258495
21792961 116 17749105565621282119
22149856 69 18338814346560556001
22956985 138 17171502300757955122
23516275 137 16127836113617237903
23559900 14 17895193367942046813
23569914 152 16974188212579677469
23569943 247 17914622661121866847
24771293 8 18198048365250163904
2747138 104 18335709351171649977
3004659 81 17530686523795573205
3178227 256 18261681449460629857
3383291 50 18261396676239745275
3663271 9 16559032696862034863
4073 2 17631725105764786030
4340502 62 15554451798942084517
439807 62 16370730370486828585
5104073 3 18265048033558071137
5265222 85 16154006749626348907
58260988 647 17559690451590447278
59755656 215 18260266326113637582

> <PUBCHEM_SHAPE_MULTIPOLES>
608.69
22.25
2.04
1.67
14.29
0.67
-0.24
-7.92
-1.28
-1.58
0.66
-0.23
-0.47
3.13

> <PUBCHEM_SHAPE_SELFOVERLAP>
1347.524

> <PUBCHEM_SHAPE_VOLUME>
322.2

> <PUBCHEM_COORDINATE_TYPE>
2
5
10

$$$$
