129730785
  -OEChem-09302010573D

 81 85  0     1  0  0  0  0  0999 V2000
    2.6088    2.9876   -0.3751 O   0  0  0  0  0  0  0  0  0  0  0  0
   -0.9117   -0.9986    0.2804 C   0  0  1  0  0  0  0  0  0  0  0  0
    0.6357   -1.0726   -0.2444 C   0  0  1  0  0  0  0  0  0  0  0  0
   -1.7345   -0.0764   -0.6870 C   0  0  1  0  0  0  0  0  0  0  0  0
    1.2259    0.4023   -0.3259 C   0  0  1  0  0  0  0  0  0  0  0  0
   -3.2702   -0.0245   -0.4712 C   0  0  1  0  0  0  0  0  0  0  0  0
   -3.9182   -1.4172   -0.2523 C   0  0  1  0  0  0  0  0  0  0  0  0
    2.8028    0.5418   -0.5304 C   0  0  2  0  0  0  0  0  0  0  0  0
   -1.5971   -2.3972    0.2832 C   0  0  0  0  0  0  0  0  0  0  0  0
   -1.1087    1.3149   -0.8385 C   0  0  0  0  0  0  0  0  0  0  0  0
    0.3532    1.2474   -1.2878 C   0  0  0  0  0  0  0  0  0  0  0  0
    1.5161   -1.9221    0.7094 C   0  0  0  0  0  0  0  0  0  0  0  0
    3.5345   -0.4373    0.4630 C   0  0  1  0  0  0  0  0  0  0  0  0
   -3.8257    0.9021    0.6433 C   0  0  2  0  0  0  0  0  0  0  0  0
   -3.0839   -2.3514    0.6524 C   0  0  0  0  0  0  0  0  0  0  0  0
   -5.2531   -1.0567    0.4214 C   0  0  0  0  0  0  0  0  0  0  0  0
    3.0054   -1.8756    0.3746 C   0  0  0  0  0  0  0  0  0  0  0  0
   -0.9616   -0.4703    1.7455 C   0  0  0  0  0  0  0  0  0  0  0  0
   -4.9033    0.0830    1.3696 C   0  0  0  0  0  0  0  0  0  0  0  0
    0.6904   -1.7871   -1.6315 C   0  0  0  0  0  0  0  0  0  0  0  0
    5.1083   -0.3498    0.4824 C   0  0  0  0  0  0  0  0  0  0  0  0
   -4.1864   -2.1203   -1.5957 C   0  0  0  0  0  0  0  0  0  0  0  0
    3.2543    1.9737   -0.1056 C   0  0  0  0  0  0  0  0  0  0  0  0
   -4.4279    2.1865    0.0651 C   0  0  0  0  0  0  0  0  0  0  0  0
    3.2358    0.3819   -1.9980 C   0  0  0  0  0  0  0  0  0  0  0  0
    5.5780    1.1034    0.2286 C   0  0  0  0  0  0  0  0  0  0  0  0
    4.5464    2.1235    0.6756 C   0  0  0  0  0  0  0  0  0  0  0  0
    5.6143   -0.7713    1.8882 C   0  0  0  0  0  0  0  0  0  0  0  0
    5.8001   -1.2805   -0.5334 C   0  0  0  0  0  0  0  0  0  0  0  0
   -4.5335    3.2578    1.1456 C   0  0  0  0  0  0  0  0  0  0  0  0
   -5.7941    1.9030   -0.5512 C   0  0  0  0  0  0  0  0  0  0  0  0
   -1.6556   -0.5342   -1.6813 H   0  0  0  0  0  0  0  0  0  0  0  0
    1.0766    0.8494    0.6651 H   0  0  0  0  0  0  0  0  0  0  0  0
   -3.6618    0.3601   -1.4249 H   0  0  0  0  0  0  0  0  0  0  0  0
   -1.0890   -3.0666    0.9873 H   0  0  0  0  0  0  0  0  0  0  0  0
   -1.5196   -2.8705   -0.6996 H   0  0  0  0  0  0  0  0  0  0  0  0
   -1.1742    1.8806    0.0972 H   0  0  0  0  0  0  0  0  0  0  0  0
   -1.6671    1.8883   -1.5884 H   0  0  0  0  0  0  0  0  0  0  0  0
    0.3918    0.8460   -2.3056 H   0  0  0  0  0  0  0  0  0  0  0  0
    0.7108    2.2752   -1.3664 H   0  0  0  0  0  0  0  0  0  0  0  0
    1.1908   -2.9690    0.7012 H   0  0  0  0  0  0  0  0  0  0  0  0
    1.4167   -1.5785    1.7430 H   0  0  0  0  0  0  0  0  0  0  0  0
    3.2242   -0.0920    1.4641 H   0  0  0  0  0  0  0  0  0  0  0  0
   -3.0419    1.1858    1.3492 H   0  0  0  0  0  0  0  0  0  0  0  0
   -3.4869   -3.3717    0.5945 H   0  0  0  0  0  0  0  0  0  0  0  0
   -3.1857   -2.0805    1.7076 H   0  0  0  0  0  0  0  0  0  0  0  0
   -5.6792   -1.9053    0.9687 H   0  0  0  0  0  0  0  0  0  0  0  0
   -6.0062   -0.7492   -0.3096 H   0  0  0  0  0  0  0  0  0  0  0  0
    3.5217   -2.5152    1.0990 H   0  0  0  0  0  0  0  0  0  0  0  0
    3.2028   -2.3141   -0.6074 H   0  0  0  0  0  0  0  0  0  0  0  0
   -0.5305    0.5254    1.8621 H   0  0  0  0  0  0  0  0  0  0  0  0
   -0.4451   -1.1426    2.4364 H   0  0  0  0  0  0  0  0  0  0  0  0
   -1.9760   -0.4068    2.1380 H   0  0  0  0  0  0  0  0  0  0  0  0
   -5.7762    0.6312    1.7301 H   0  0  0  0  0  0  0  0  0  0  0  0
   -4.4558   -0.3407    2.2780 H   0  0  0  0  0  0  0  0  0  0  0  0
    0.0608   -1.3243   -2.3922 H   0  0  0  0  0  0  0  0  0  0  0  0
    0.3877   -2.8363   -1.5523 H   0  0  0  0  0  0  0  0  0  0  0  0
    1.6921   -1.8176   -2.0533 H   0  0  0  0  0  0  0  0  0  0  0  0
   -4.8130   -1.5039   -2.2505 H   0  0  0  0  0  0  0  0  0  0  0  0
   -4.7111   -3.0702   -1.4437 H   0  0  0  0  0  0  0  0  0  0  0  0
   -3.2591   -2.3308   -2.1374 H   0  0  0  0  0  0  0  0  0  0  0  0
   -3.7695    2.5845   -0.7160 H   0  0  0  0  0  0  0  0  0  0  0  0
    3.3153   -0.6609   -2.3051 H   0  0  0  0  0  0  0  0  0  0  0  0
    4.2093    0.8387   -2.1967 H   0  0  0  0  0  0  0  0  0  0  0  0
    2.5499    0.8837   -2.6860 H   0  0  0  0  0  0  0  0  0  0  0  0
    5.7928    1.2585   -0.8351 H   0  0  0  0  0  0  0  0  0  0  0  0
    6.5268    1.2992    0.7441 H   0  0  0  0  0  0  0  0  0  0  0  0
    4.9384    3.1314    0.4985 H   0  0  0  0  0  0  0  0  0  0  0  0
    4.3237    2.0334    1.7436 H   0  0  0  0  0  0  0  0  0  0  0  0
    6.7064   -0.6974    1.9537 H   0  0  0  0  0  0  0  0  0  0  0  0
    5.1956   -0.1315    2.6728 H   0  0  0  0  0  0  0  0  0  0  0  0
    5.4849   -1.0802   -1.5598 H   0  0  0  0  0  0  0  0  0  0  0  0
    6.8885   -1.1496   -0.5003 H   0  0  0  0  0  0  0  0  0  0  0  0
    5.6001   -2.3361   -0.3216 H   0  0  0  0  0  0  0  0  0  0  0  0
    5.3489   -1.8064    2.1245 H   0  0  0  0  0  0  0  0  0  0  0  0
   -5.1817    2.9454    1.9709 H   0  0  0  0  0  0  0  0  0  0  0  0
   -4.9458    4.1841    0.7309 H   0  0  0  0  0  0  0  0  0  0  0  0
   -6.5804    1.6560    0.1660 H   0  0  0  0  0  0  0  0  0  0  0  0
   -5.7541    1.1418   -1.3344 H   0  0  0  0  0  0  0  0  0  0  0  0
   -6.1444    2.8148   -1.0531 H   0  0  0  0  0  0  0  0  0  0  0  0
   -3.5474    3.4932    1.5603 H   0  0  0  0  0  0  0  0  0  0  0  0
  1 23  2  0  0  0  0
  2  3  1  0  0  0  0
  2  4  1  0  0  0  0
  2  9  1  0  0  0  0
  2 18  1  0  0  0  0
  3  5  1  0  0  0  0
  3 12  1  0  0  0  0
  3 20  1  0  0  0  0
  4  6  1  0  0  0  0
  4 10  1  0  0  0  0
  4 32  1  0  0  0  0
  5  8  1  0  0  0  0
  5 11  1  0  0  0  0
  5 33  1  0  0  0  0
  6  7  1  0  0  0  0
  6 14  1  0  0  0  0
  6 34  1  0  0  0  0
  7 15  1  0  0  0  0
  7 16  1  0  0  0  0
  7 22  1  0  0  0  0
  8 13  1  0  0  0  0
  8 23  1  0  0  0  0
  8 25  1  0  0  0  0
  9 15  1  0  0  0  0
  9 35  1  0  0  0  0
  9 36  1  0  0  0  0
 10 11  1  0  0  0  0
 10 37  1  0  0  0  0
 10 38  1  0  0  0  0
 11 39  1  0  0  0  0
 11 40  1  0  0  0  0
 12 17  1  0  0  0  0
 12 41  1  0  0  0  0
 12 42  1  0  0  0  0
 13 17  1  0  0  0  0
 13 21  1  0  0  0  0
 13 43  1  0  0  0  0
 14 19  1  0  0  0  0
 14 24  1  0  0  0  0
 14 44  1  0  0  0  0
 15 45  1  0  0  0  0
 15 46  1  0  0  0  0
 16 19  1  0  0  0  0
 16 47  1  0  0  0  0
 16 48  1  0  0  0  0
 17 49  1  0  0  0  0
 17 50  1  0  0  0  0
 18 51  1  0  0  0  0
 18 52  1  0  0  0  0
 18 53  1  0  0  0  0
 19 54  1  0  0  0  0
 19 55  1  0  0  0  0
 20 56  1  0  0  0  0
 20 57  1  0  0  0  0
 20 58  1  0  0  0  0
 21 26  1  0  0  0  0
 21 28  1  0  0  0  0
 21 29  1  0  0  0  0
 22 59  1  0  0  0  0
 22 60  1  0  0  0  0
 22 61  1  0  0  0  0
 23 27  1  0  0  0  0
 24 30  1  0  0  0  0
 24 31  1  0  0  0  0
 24 62  1  0  0  0  0
 25 63  1  0  0  0  0
 25 64  1  0  0  0  0
 25 65  1  0  0  0  0
 26 27  1  0  0  0  0
 26 66  1  0  0  0  0
 26 67  1  0  0  0  0
 27 68  1  0  0  0  0
 27 69  1  0  0  0  0
 28 70  1  0  0  0  0
 28 71  1  0  0  0  0
 28 75  1  0  0  0  0
 29 72  1  0  0  0  0
 29 73  1  0  0  0  0
 29 74  1  0  0  0  0
 30 76  1  0  0  0  0
 30 77  1  0  0  0  0
 30 81  1  0  0  0  0
 31 78  1  0  0  0  0
 31 79  1  0  0  0  0
 31 80  1  0  0  0  0
M  END
> <PUBCHEM_COMPOUND_CID>
129730785

> <PUBCHEM_CONFORMER_RMSD>
0.8

> <PUBCHEM_CONFORMER_DIVERSEORDER>
1
5
9
10
3
15
17
6
2
4
8
16
13
14
7
18
12
11

> <PUBCHEM_MMFF94_PARTIAL_CHARGES>
4
1 -0.57
23 0.45
27 0.06
8 0.06

> <PUBCHEM_EFFECTIVE_ROTOR_COUNT>
3.4

> <PUBCHEM_PHARMACOPHORE_FEATURES>
8
1 1 acceptor
3 21 28 29 hydrophobe
3 24 30 31 hydrophobe
5 6 7 14 16 19 rings
6 2 3 4 5 10 11 rings
6 2 4 6 7 9 15 rings
6 3 5 8 12 13 17 rings
6 8 13 21 23 26 27 rings

> <PUBCHEM_HEAVY_ATOM_COUNT>
31

> <PUBCHEM_ATOM_DEF_STEREO_COUNT>
5

> <PUBCHEM_ATOM_UDEF_STEREO_COUNT>
4

> <PUBCHEM_BOND_DEF_STEREO_COUNT>
0

> <PUBCHEM_BOND_UDEF_STEREO_COUNT>
0

> <PUBCHEM_ISOTOPIC_ATOM_COUNT>
0

> <PUBCHEM_COMPONENT_COUNT>
1

> <PUBCHEM_CACTVS_TAUTO_COUNT>
2

> <PUBCHEM_CONFORMER_ID>
07BB88E100000001

> <PUBCHEM_MMFF94_ENERGY>
154.1149

> <PUBCHEM_FEATURE_SELFOVERLAP>
40.78

> <PUBCHEM_SHAPE_FINGERPRINT>
10675989 125 16096818572490612764
10906281 52 17895209796128416394
11405975 8 18334576884212254362
11578080 2 13829036515992713825
12107183 9 18121777223162471066
12166972 35 18272654575817077264
12236239 1 18201720686314534279
12403259 118 18342729732761797666
12403260 363 18337949103290625421
12422481 6 18261670381213850172
12633257 1 18187357701870433336
12925494 130 18412540982049090321
12969540 114 15554728875882540581
13140716 1 18260548961063346874
13224815 77 18410014376772458415
13583140 156 17060327531455513783
14251764 38 18340209707809041960
14341114 176 18410015433619340736
14466204 15 18413670205811739728
14790565 3 18191031299358463484
14849402 71 18264210373966944240
15183329 4 18334290951117427962
15196674 1 18408602582520440868
15238133 3 18335712593993394516
15484559 13 15516684364833370087
15788980 27 17821445768148545407
1601671 61 18410857629624755542
16112460 7 17909841937851958345
17349148 13 17313106371082549814
17844677 252 18341619230143945104
17980427 23 18410575115134169069
1813 80 16298101008389719078
20511986 3 18336813239481636021
20715895 44 18198061378842626969
20739085 24 17894918442378778932
21033648 144 18116142445144800820
21033648 29 17774139272332835090
21033650 10 18128562446840352093
21236236 1 18410852175000426453
21267235 1 18260555544985039171
21279426 13 18411984624626965508
21315764 268 18339921631752414417
21421861 104 17604702245427683170
21709351 56 18411979165359509551
21859007 373 17388246850329325373
23402539 116 18334852814365099759
23522609 53 17896627032299437396
23559900 14 17916319250702309830
23569914 2 17125589001073208256
24771293 8 18338508764370580520
3117164 225 18408039602512889128
32027 91 17272871813465749870
335352 9 18335701607366525894
34797466 226 17632024142440185623
3493558 16 18200602388515831688
350125 39 18259985955565722196
3633792 109 18261094272324646887
3680242 22 18114457856419628194
392239 28 18413673521389394369
4073 2 18114466751197041602
4144715 1 18335995202425090810
460360 51 18336564775238544664
5104073 3 18333725836621939400
57724786 102 17386017216567320580
59755656 215 18268435638016567166
6086070 43 18130776888991930849
6328613 192 18260558839894706260
7226269 152 18272934886330584793
79837 15 18114751558736584571
9981440 41 18408045117694593923

> <PUBCHEM_SHAPE_MULTIPOLES>
632.1
13.79
3.02
1.46
2.49
1.12
-0.08
3.35
2.73
-1.99
0.14
0.24
-0.19
-0.82

> <PUBCHEM_SHAPE_SELFOVERLAP>
1334.566

> <PUBCHEM_SHAPE_VOLUME>
350.2

> <PUBCHEM_COORDINATE_TYPE>
2
5
10

$$$$
