6325261
  -OEChem-09302011243D

 52 53  0     1  0  0  0  0  0999 V2000
   -2.0519    0.4033   -0.1548 O   0  0  0  0  0  0  0  0  0  0  0  0
   -1.4906   -1.7512    0.5429 O   0  0  0  0  0  0  0  0  0  0  0  0
   -5.8626    0.0314    1.3309 O   0  0  0  0  0  0  0  0  0  0  0  0
   -5.2603    2.1184   -0.5764 O   0  0  0  0  0  0  0  0  0  0  0  0
   -4.2422   -2.3672    0.7815 O   0  0  0  0  0  0  0  0  0  0  0  0
   -1.2055    2.4931   -1.7273 O   0  0  0  0  0  0  0  0  0  0  0  0
    0.8133   -0.9056    1.8159 O   0  0  0  0  0  0  0  0  0  0  0  0
    3.4619   -1.0970    1.7451 O   0  0  0  0  0  0  0  0  0  0  0  0
    3.6740    2.8974    1.0345 O   0  0  0  0  0  0  0  0  0  0  0  0
    2.7596    1.9109   -0.8387 O   0  0  0  0  0  0  0  0  0  0  0  0
   -4.8413   -0.0721    0.3376 C   0  0  1  0  0  0  0  0  0  0  0  0
   -4.2793    1.3278    0.0895 C   0  0  1  0  0  0  0  0  0  0  0  0
   -3.7519   -1.0274    0.8253 C   0  0  2  0  0  0  0  0  0  0  0  0
   -3.0147    1.2609   -0.7701 C   0  0  1  0  0  0  0  0  0  0  0  0
   -2.5050   -0.9448   -0.0551 C   0  0  1  0  0  0  0  0  0  0  0  0
   -2.3699    2.6336   -0.9338 C   0  0  0  0  0  0  0  0  0  0  0  0
   -0.2860   -1.7991   -0.1036 C   0  0  0  0  0  0  0  0  0  0  0  0
    0.8748   -1.3731    0.5360 C   0  0  0  0  0  0  0  0  0  0  0  0
    2.0961   -1.4278   -0.1357 C   0  0  0  0  0  0  0  0  0  0  0  0
    4.4875   -0.3921   -0.3202 C   0  0  1  0  0  0  0  0  0  0  0  0
   -0.2352   -2.2791   -1.4093 C   0  0  0  0  0  0  0  0  0  0  0  0
    3.3254   -0.9873    0.5097 C   0  0  0  0  0  0  0  0  0  0  0  0
    2.1518   -1.9079   -1.4441 C   0  0  0  0  0  0  0  0  0  0  0  0
    4.7949    1.0302    0.1700 C   0  0  0  0  0  0  0  0  0  0  0  0
    0.9862   -2.3337   -2.0809 C   0  0  0  0  0  0  0  0  0  0  0  0
    5.7319   -1.2808   -0.2377 C   0  0  0  0  0  0  0  0  0  0  0  0
    3.6169    1.9710    0.0315 C   0  0  0  0  0  0  0  0  0  0  0  0
    2.6222    3.8680    1.0374 C   0  0  0  0  0  0  0  0  0  0  0  0
   -5.3254   -0.4670   -0.5642 H   0  0  0  0  0  0  0  0  0  0  0  0
   -4.0665    1.8107    1.0512 H   0  0  0  0  0  0  0  0  0  0  0  0
   -3.5014   -0.8154    1.8715 H   0  0  0  0  0  0  0  0  0  0  0  0
   -3.2390    0.8703   -1.7721 H   0  0  0  0  0  0  0  0  0  0  0  0
   -2.7370   -1.3345   -1.0549 H   0  0  0  0  0  0  0  0  0  0  0  0
   -2.0671    3.0520    0.0318 H   0  0  0  0  0  0  0  0  0  0  0  0
   -3.0415    3.3402   -1.4295 H   0  0  0  0  0  0  0  0  0  0  0  0
   -6.5310    0.6542    0.9974 H   0  0  0  0  0  0  0  0  0  0  0  0
   -5.4502    1.7016   -1.4343 H   0  0  0  0  0  0  0  0  0  0  0  0
   -4.4724   -2.5745   -0.1403 H   0  0  0  0  0  0  0  0  0  0  0  0
   -0.6178    1.8613   -1.2785 H   0  0  0  0  0  0  0  0  0  0  0  0
    4.1961   -0.3098   -1.3716 H   0  0  0  0  0  0  0  0  0  0  0  0
   -1.1275   -2.6356   -1.9155 H   0  0  0  0  0  0  0  0  0  0  0  0
    3.0864   -2.0013   -1.9886 H   0  0  0  0  0  0  0  0  0  0  0  0
    5.6268    1.4608   -0.3989 H   0  0  0  0  0  0  0  0  0  0  0  0
    5.0933    0.9939    1.2253 H   0  0  0  0  0  0  0  0  0  0  0  0
    1.0310   -2.7197   -3.0951 H   0  0  0  0  0  0  0  0  0  0  0  0
    5.5054   -2.2935   -0.5875 H   0  0  0  0  0  0  0  0  0  0  0  0
    6.5407   -0.8778   -0.8557 H   0  0  0  0  0  0  0  0  0  0  0  0
    6.0952   -1.3612    0.7926 H   0  0  0  0  0  0  0  0  0  0  0  0
    1.6681   -0.5382    2.0906 H   0  0  0  0  0  0  0  0  0  0  0  0
    2.6494    4.4579    0.1163 H   0  0  0  0  0  0  0  0  0  0  0  0
    2.7790    4.5369    1.8879 H   0  0  0  0  0  0  0  0  0  0  0  0
    1.6520    3.3750    1.1524 H   0  0  0  0  0  0  0  0  0  0  0  0
  1 14  1  0  0  0  0
  1 15  1  0  0  0  0
  2 15  1  0  0  0  0
  2 17  1  0  0  0  0
  3 11  1  0  0  0  0
  3 36  1  0  0  0  0
  4 12  1  0  0  0  0
  4 37  1  0  0  0  0
  5 13  1  0  0  0  0
  5 38  1  0  0  0  0
  6 16  1  0  0  0  0
  6 39  1  0  0  0  0
  7 18  1  0  0  0  0
  7 49  1  0  0  0  0
  8 22  2  0  0  0  0
  9 27  1  0  0  0  0
  9 28  1  0  0  0  0
 10 27  2  0  0  0  0
 11 12  1  0  0  0  0
 11 13  1  0  0  0  0
 11 29  1  0  0  0  0
 12 14  1  0  0  0  0
 12 30  1  0  0  0  0
 13 15  1  0  0  0  0
 13 31  1  0  0  0  0
 14 16  1  0  0  0  0
 14 32  1  0  0  0  0
 15 33  1  0  0  0  0
 16 34  1  0  0  0  0
 16 35  1  0  0  0  0
 17 18  1  0  0  0  0
 17 21  2  0  0  0  0
 18 19  2  0  0  0  0
 19 22  1  0  0  0  0
 19 23  1  0  0  0  0
 20 22  1  0  0  0  0
 20 24  1  0  0  0  0
 20 26  1  0  0  0  0
 20 40  1  0  0  0  0
 21 25  1  0  0  0  0
 21 41  1  0  0  0  0
 23 25  2  0  0  0  0
 23 42  1  0  0  0  0
 24 27  1  0  0  0  0
 24 43  1  0  0  0  0
 24 44  1  0  0  0  0
 25 45  1  0  0  0  0
 26 46  1  0  0  0  0
 26 47  1  0  0  0  0
 26 48  1  0  0  0  0
 28 50  1  0  0  0  0
 28 51  1  0  0  0  0
 28 52  1  0  0  0  0
M  END
> <PUBCHEM_COMPOUND_CID>
6325261

> <PUBCHEM_CONFORMER_RMSD>
1.2

> <PUBCHEM_CONFORMER_DIVERSEORDER>
1
24
118
76
184
136
40
144
77
85
196
158
209
193
34
181
200
165
211
50
3
176
197
81
56
189
191
172
160
123
54
61
92
91
156
41
66
70
168
166
130
119
161
17
153
52
207
198
35
116
140
115
72
67
64
29
99
97
163
42
121
127
194
148
180
107
146
28
88
87
90
84
83
51
137
26
178
44
23
173
131
204
120
21
142
73
58
192
188
75
113
95
111
19
179
45
122
57
190
79
22
150
46
208
109
105
110
20
14
47
203
134
71
206
145
33
139
108
159
170
94
93
201
43
63
171
174
195
31
59
2
65
124
37
8
183
32
86
129
147
143
78
9
133
155
98
187
7
96
138
212
182
177
68
49
82
151
80
36
186
149
101
27
18
25
117
167
205
154
169
55
60
62
202
48
100
103
53
89
152
128
4
38
69
125
141
132
5
175
10
199
12
112
164
135
162
114
6
185
104
106
126
157
11
102
15
39
74
30
16
210
13

> <PUBCHEM_MMFF94_PARTIAL_CHARGES>
35
1 -0.56
10 -0.57
11 0.28
12 0.28
13 0.28
14 0.28
15 0.56
16 0.28
17 0.08
18 0.08
19 0.09
2 -0.36
20 0.06
21 -0.15
22 0.42
23 -0.15
24 0.06
25 -0.15
27 0.66
28 0.28
3 -0.68
36 0.4
37 0.4
38 0.4
39 0.4
4 -0.68
41 0.15
42 0.15
45 0.15
49 0.45
5 -0.68
6 -0.68
7 -0.53
8 -0.57
9 -0.43

> <PUBCHEM_EFFECTIVE_ROTOR_COUNT>
9.2

> <PUBCHEM_PHARMACOPHORE_FEATURES>
16
1 1 acceptor
1 10 acceptor
1 2 acceptor
1 26 hydrophobe
1 3 acceptor
1 3 donor
1 4 acceptor
1 4 donor
1 5 acceptor
1 5 donor
1 6 acceptor
1 6 donor
1 7 donor
1 8 acceptor
6 1 11 12 13 14 15 rings
6 17 18 19 21 23 25 rings

> <PUBCHEM_HEAVY_ATOM_COUNT>
28

> <PUBCHEM_ATOM_DEF_STEREO_COUNT>
6

> <PUBCHEM_ATOM_UDEF_STEREO_COUNT>
0

> <PUBCHEM_BOND_DEF_STEREO_COUNT>
0

> <PUBCHEM_BOND_UDEF_STEREO_COUNT>
0

> <PUBCHEM_ISOTOPIC_ATOM_COUNT>
0

> <PUBCHEM_COMPONENT_COUNT>
1

> <PUBCHEM_CACTVS_TAUTO_COUNT>
9

> <PUBCHEM_CONFORMER_ID>
0060840D00000001

> <PUBCHEM_MMFF94_ENERGY>
84.6883

> <PUBCHEM_FEATURE_SELFOVERLAP>
81.263

> <PUBCHEM_SHAPE_FINGERPRINT>
10675989 125 16389842815466531132
10871710 139 17331958829707808756
11045977 3 18260550004524264839
11595378 159 17168132430002404432
12403259 118 18341319072154884370
12422481 6 18410857684931809609
12596602 18 15357993281873484876
12633257 1 18262228907187543320
12925494 130 18339641127929293729
13402501 40 18408886209244508196
13583140 156 18041821940245032046
14251764 75 18055362589129044448
15238133 3 18187081755186655938
15840311 113 17770244686747962953
15961568 22 18262244411998643173
21033648 29 17917130750798214114
21709351 56 18273493476913325550
23227448 37 18341891951988155086
23557571 272 18336557027481935743
23559900 14 18268433421254818647
350125 39 18408889546718797276
392239 28 17749399199497336771
4144715 1 18335150769021114298
5081480 168 17271473221647216124
508706 21 18114730560514496901
5776283 40 17901967553860777724

> <PUBCHEM_SHAPE_MULTIPOLES>
517.53
11.77
3.78
1.47
4.44
3.01
0.17
3.16
-2.41
-1.65
0.52
-0.02
-0.31
1.83

> <PUBCHEM_SHAPE_SELFOVERLAP>
1078.332

> <PUBCHEM_SHAPE_VOLUME>
291.4

> <PUBCHEM_COORDINATE_TYPE>
2
5
10

$$$$
