146680
  -OEChem-09302011253D

 42 45  0     0  0  0  0  0  0999 V2000
    0.9810    1.5582    1.0974 O   0  0  0  0  0  0  0  0  0  0  0  0
   -0.9810   -1.5582    1.0974 O   0  0  0  0  0  0  0  0  0  0  0  0
    5.4193   -1.5950   -1.4157 O   0  0  0  0  0  0  0  0  0  0  0  0
   -5.4193    1.5949   -1.4157 O   0  0  0  0  0  0  0  0  0  0  0  0
    3.3771    2.0527    1.9133 O   0  0  0  0  0  0  0  0  0  0  0  0
   -3.3771   -2.0527    1.9133 O   0  0  0  0  0  0  0  0  0  0  0  0
    0.7181   -0.1004   -0.5791 C   0  0  0  0  0  0  0  0  0  0  0  0
   -0.7181    0.1004   -0.5791 C   0  0  0  0  0  0  0  0  0  0  0  0
    2.9325    0.4237    0.2420 C   0  0  0  0  0  0  0  0  0  0  0  0
   -2.9325   -0.4238    0.2419 C   0  0  0  0  0  0  0  0  0  0  0  0
    3.4800   -0.5256   -0.6223 C   0  0  0  0  0  0  0  0  0  0  0  0
   -3.4800    0.5256   -0.6224 C   0  0  0  0  0  0  0  0  0  0  0  0
    1.5493    0.6371    0.2640 C   0  0  0  0  0  0  0  0  0  0  0  0
   -1.5493   -0.6371    0.2640 C   0  0  0  0  0  0  0  0  0  0  0  0
    1.2632   -1.0487   -1.4427 C   0  0  0  0  0  0  0  0  0  0  0  0
   -1.2632    1.0487   -1.4426 C   0  0  0  0  0  0  0  0  0  0  0  0
    2.6418   -1.2634   -1.4666 C   0  0  0  0  0  0  0  0  0  0  0  0
   -2.6418    1.2634   -1.4666 C   0  0  0  0  0  0  0  0  0  0  0  0
    4.9375   -0.7611   -0.6570 C   0  0  0  0  0  0  0  0  0  0  0  0
   -4.9375    0.7611   -0.6570 C   0  0  0  0  0  0  0  0  0  0  0  0
    3.8030    1.2078    1.1353 C   0  0  0  0  0  0  0  0  0  0  0  0
   -3.8030   -1.2077    1.1353 C   0  0  0  0  0  0  0  0  0  0  0  0
    5.7970    0.0425    0.2544 C   0  0  0  0  0  0  0  0  0  0  0  0
   -5.7971   -0.0426    0.2544 C   0  0  0  0  0  0  0  0  0  0  0  0
    5.2560    0.9487    1.0768 C   0  0  0  0  0  0  0  0  0  0  0  0
   -5.2560   -0.9487    1.0768 C   0  0  0  0  0  0  0  0  0  0  0  0
    7.2723   -0.2134    0.2003 C   0  0  0  0  0  0  0  0  0  0  0  0
   -7.2722    0.2134    0.2003 C   0  0  0  0  0  0  0  0  0  0  0  0
    0.6288   -1.6322   -2.1062 H   0  0  0  0  0  0  0  0  0  0  0  0
   -0.6289    1.6322   -2.1063 H   0  0  0  0  0  0  0  0  0  0  0  0
    3.0417   -2.0086   -2.1491 H   0  0  0  0  0  0  0  0  0  0  0  0
   -3.0417    2.0086   -2.1491 H   0  0  0  0  0  0  0  0  0  0  0  0
    5.8775    1.5383    1.7438 H   0  0  0  0  0  0  0  0  0  0  0  0
   -5.8775   -1.5384    1.7438 H   0  0  0  0  0  0  0  0  0  0  0  0
    7.8250    0.4209    0.9016 H   0  0  0  0  0  0  0  0  0  0  0  0
    7.6590   -0.0118   -0.8041 H   0  0  0  0  0  0  0  0  0  0  0  0
    7.4892   -1.2560    0.4549 H   0  0  0  0  0  0  0  0  0  0  0  0
   -7.4891    1.2561    0.4548 H   0  0  0  0  0  0  0  0  0  0  0  0
   -7.8250   -0.4208    0.9016 H   0  0  0  0  0  0  0  0  0  0  0  0
   -7.6589    0.0119   -0.8042 H   0  0  0  0  0  0  0  0  0  0  0  0
    1.6508    2.0040    1.6363 H   0  0  0  0  0  0  0  0  0  0  0  0
   -0.0162   -1.5877    1.0106 H   0  0  0  0  0  0  0  0  0  0  0  0
  1 13  1  0  0  0  0
  1 41  1  0  0  0  0
  2 14  1  0  0  0  0
  2 42  1  0  0  0  0
  3 19  2  0  0  0  0
  4 20  2  0  0  0  0
  5 21  2  0  0  0  0
  6 22  2  0  0  0  0
  7  8  1  0  0  0  0
  7 13  2  0  0  0  0
  7 15  1  0  0  0  0
  8 14  2  0  0  0  0
  8 16  1  0  0  0  0
  9 11  2  0  0  0  0
  9 13  1  0  0  0  0
  9 21  1  0  0  0  0
 10 12  2  0  0  0  0
 10 14  1  0  0  0  0
 10 22  1  0  0  0  0
 11 17  1  0  0  0  0
 11 19  1  0  0  0  0
 12 18  1  0  0  0  0
 12 20  1  0  0  0  0
 15 17  2  0  0  0  0
 15 29  1  0  0  0  0
 16 18  2  0  0  0  0
 16 30  1  0  0  0  0
 17 31  1  0  0  0  0
 18 32  1  0  0  0  0
 19 23  1  0  0  0  0
 20 24  1  0  0  0  0
 21 25  1  0  0  0  0
 22 26  1  0  0  0  0
 23 25  2  0  0  0  0
 23 27  1  0  0  0  0
 24 26  2  0  0  0  0
 24 28  1  0  0  0  0
 25 33  1  0  0  0  0
 26 34  1  0  0  0  0
 27 35  1  0  0  0  0
 27 36  1  0  0  0  0
 27 37  1  0  0  0  0
 28 38  1  0  0  0  0
 28 39  1  0  0  0  0
 28 40  1  0  0  0  0
M  END
> <PUBCHEM_COMPOUND_CID>
146680

> <PUBCHEM_CONFORMER_RMSD>
0.6

> <PUBCHEM_CONFORMER_DIVERSEORDER>
2
3
1

> <PUBCHEM_MMFF94_PARTIAL_CHARGES>
34
1 -0.53
10 0.09
11 0.09
12 0.09
13 0.08
14 0.08
15 -0.15
16 -0.15
17 -0.15
18 -0.15
19 0.47
2 -0.53
20 0.47
21 0.47
22 0.47
23 -0.12
24 -0.12
25 -0.14
26 -0.14
27 0.14
28 0.14
29 0.15
3 -0.57
30 0.15
31 0.15
32 0.15
33 0.15
34 0.15
4 -0.57
41 0.45
42 0.45
5 -0.57
6 -0.57
9 0.09

> <PUBCHEM_EFFECTIVE_ROTOR_COUNT>
1

> <PUBCHEM_PHARMACOPHORE_FEATURES>
10
1 1 donor
1 2 donor
1 3 acceptor
1 4 acceptor
1 5 acceptor
1 6 acceptor
6 10 12 20 22 24 26 rings
6 7 9 11 13 15 17 rings
6 8 10 12 14 16 18 rings
6 9 11 19 21 23 25 rings

> <PUBCHEM_HEAVY_ATOM_COUNT>
28

> <PUBCHEM_ATOM_DEF_STEREO_COUNT>
0

> <PUBCHEM_ATOM_UDEF_STEREO_COUNT>
0

> <PUBCHEM_BOND_DEF_STEREO_COUNT>
0

> <PUBCHEM_BOND_UDEF_STEREO_COUNT>
0

> <PUBCHEM_ISOTOPIC_ATOM_COUNT>
0

> <PUBCHEM_COMPONENT_COUNT>
1

> <PUBCHEM_CACTVS_TAUTO_COUNT>
186

> <PUBCHEM_CONFORMER_ID>
00023CF800000002

> <PUBCHEM_MMFF94_ENERGY>
89.1302

> <PUBCHEM_FEATURE_SELFOVERLAP>
50.791

> <PUBCHEM_SHAPE_FINGERPRINT>
10 15 18410288143058235328
10299344 5 15719392832353596226
10319926 262 18113889494206319489
10673678 19 18191036801707792972
11045977 3 18410575119022817515
11059845 2 16594453296680008952
11089746 13 15482669104544146192
11315181 36 16805609183207616381
11524674 6 18341893008751076511
11545043 162 18261115200687495098
117089 54 17621881986502395614
11796584 16 18113058221109931282
12166972 35 16200144409037251113
12403259 415 18409726257444424213
12616971 3 16702300152497780309
13402501 40 18410573980856483879
13533116 47 15841555133390362470
13782708 43 18410295847607689339
14294032 229 16879342313029549229
14386348 63 18410578378908399814
14840074 17 17060621105349991468
15328829 1 15769773550397183509
15348495 7 18338517559349902936
15419008 47 18410292497343515212
1577012 14 15554448491732590620
17844677 252 18040439905837304364
1813 80 14346067565018671650
18681886 176 17240773912439201078
20511986 3 15697709329161388194
21033648 144 17130971200774517736
21033648 29 18341037584282650840
21033650 10 16879644665588564204
21267235 1 17703514295170588190
21623969 137 18202568380184069294
21792961 116 18341618071694921358
22122407 14 17203341034876859769
23522609 53 15575576642731575660
23557571 272 18187651271290608893
23559900 14 18113904874584257756
3004659 81 17022912258578977262
3178227 256 18201999928809947922
3383291 50 17822581611844273651
3411729 13 17605565564082922484
345986 75 16772952485594067210
34797466 226 18040443191982586756
3633792 109 16558189298735126701
397830 11 18266459995371471344
4073 2 18270960262315807414
4340502 62 18187361022350080162
474 4 17060338560973571934
5104073 3 18266740173268058459
5265222 85 17969517068630305774
5385378 56 18041564616560309531
59755656 215 18187364302861140611
602551 16 17894632590745854402
7226269 152 17967811635574154029

> <PUBCHEM_SHAPE_MULTIPOLES>
541.01
16.95
1.59
1.58
0
0
0.05
0
1.95
0.01
0.28
-0.01
0
3.1

> <PUBCHEM_SHAPE_SELFOVERLAP>
1228.312

> <PUBCHEM_SHAPE_VOLUME>
280.7

> <PUBCHEM_COORDINATE_TYPE>
2
5
10

$$$$
