129649678
  -OEChem-09302011013D

 77 80  0     1  0  0  0  0  0999 V2000
    4.4418   -0.8626    1.4430 O   0  0  0  0  0  0  0  0  0  0  0  0
    3.6507   -1.7556   -2.0345 O   0  0  0  0  0  0  0  0  0  0  0  0
    7.5611    1.2731   -0.2805 O   0  0  0  0  0  0  0  0  0  0  0  0
   -0.0274   -1.2846    0.4484 C   0  0  1  0  0  0  0  0  0  0  0  0
    1.3223   -0.9692   -0.2085 C   0  0  1  0  0  0  0  0  0  0  0  0
   -1.0551   -0.1426    0.2922 C   0  0  1  0  0  0  0  0  0  0  0  0
    1.9101    0.3183    0.4606 C   0  0  1  0  0  0  0  0  0  0  0  0
    3.3262    0.6871   -0.1293 C   0  0  2  0  0  0  0  0  0  0  0  0
   -2.2669   -0.8033    0.9940 C   0  0  2  0  0  0  0  0  0  0  0  0
    4.2684   -0.5653    0.0371 C   0  0  2  0  0  0  0  0  0  0  0  0
   -0.4943    1.0950    1.0062 C   0  0  0  0  0  0  0  0  0  0  0  0
    0.8899    1.4889    0.4591 C   0  0  0  0  0  0  0  0  0  0  0  0
    2.2903   -2.1593   -0.0958 C   0  0  0  0  0  0  0  0  0  0  0  0
   -0.7980   -2.5241    0.0034 C   0  0  0  0  0  0  0  0  0  0  0  0
    3.6980   -1.8406   -0.6164 C   0  0  1  0  0  0  0  0  0  0  0  0
   -2.2397   -2.2604    0.4760 C   0  0  0  0  0  0  0  0  0  0  0  0
    3.9609    1.8691    0.6677 C   0  0  0  0  0  0  0  0  0  0  0  0
    5.7020   -0.2611   -0.4391 C   0  0  0  0  0  0  0  0  0  0  0  0
   -1.3889    0.2120   -1.1787 C   0  0  0  0  0  0  0  0  0  0  0  0
   -3.6182   -0.1309    0.7988 C   0  0  1  0  0  0  0  0  0  0  0  0
    3.1843    1.1487   -1.6058 C   0  0  0  0  0  0  0  0  0  0  0  0
    5.4040    2.1685    0.2516 C   0  0  0  0  0  0  0  0  0  0  0  0
    6.3046    0.9368    0.3020 C   0  0  2  0  0  0  0  0  0  0  0  0
   -4.8010   -1.0735    1.1130 C   0  0  0  0  0  0  0  0  0  0  0  0
   -3.7129    1.1175    1.6849 C   0  0  0  0  0  0  0  0  0  0  0  0
   -6.1981   -0.4821    0.8638 C   0  0  0  0  0  0  0  0  0  0  0  0
   -6.4295    0.0159   -0.5478 C   0  0  0  0  0  0  0  0  0  0  0  0
   -6.0597    1.3973   -0.8568 C   0  0  0  0  0  0  0  0  0  0  0  0
   -6.9877   -0.7814   -1.4754 C   0  0  0  0  0  0  0  0  0  0  0  0
   -6.3328    2.4317    0.1988 C   0  0  0  0  0  0  0  0  0  0  0  0
   -5.5043    1.7367   -2.0322 C   0  0  0  0  0  0  0  0  0  0  0  0
    0.1744   -1.4249    1.5239 H   0  0  0  0  0  0  0  0  0  0  0  0
    1.1585   -0.7914   -1.2752 H   0  0  0  0  0  0  0  0  0  0  0  0
    2.0643    0.0748    1.5232 H   0  0  0  0  0  0  0  0  0  0  0  0
   -2.0591   -0.8651    2.0733 H   0  0  0  0  0  0  0  0  0  0  0  0
   -0.4038    0.9029    2.0830 H   0  0  0  0  0  0  0  0  0  0  0  0
   -1.1629    1.9541    0.8962 H   0  0  0  0  0  0  0  0  0  0  0  0
    0.7701    1.8902   -0.5520 H   0  0  0  0  0  0  0  0  0  0  0  0
    1.2668    2.3121    1.0759 H   0  0  0  0  0  0  0  0  0  0  0  0
    2.3586   -2.4731    0.9536 H   0  0  0  0  0  0  0  0  0  0  0  0
    1.8816   -3.0092   -0.6560 H   0  0  0  0  0  0  0  0  0  0  0  0
   -0.3955   -3.4386    0.4510 H   0  0  0  0  0  0  0  0  0  0  0  0
   -0.7671   -2.6459   -1.0853 H   0  0  0  0  0  0  0  0  0  0  0  0
    4.3438   -2.6939   -0.3725 H   0  0  0  0  0  0  0  0  0  0  0  0
   -2.9020   -2.4179   -0.3822 H   0  0  0  0  0  0  0  0  0  0  0  0
   -2.5300   -2.9641    1.2638 H   0  0  0  0  0  0  0  0  0  0  0  0
    3.9402    1.6501    1.7429 H   0  0  0  0  0  0  0  0  0  0  0  0
    3.3752    2.7858    0.5320 H   0  0  0  0  0  0  0  0  0  0  0  0
    5.7430   -0.0940   -1.5215 H   0  0  0  0  0  0  0  0  0  0  0  0
    6.3552   -1.1266   -0.2614 H   0  0  0  0  0  0  0  0  0  0  0  0
   -1.8965   -0.6031   -1.7039 H   0  0  0  0  0  0  0  0  0  0  0  0
   -0.4995    0.4574   -1.7649 H   0  0  0  0  0  0  0  0  0  0  0  0
   -2.0370    1.0941   -1.2326 H   0  0  0  0  0  0  0  0  0  0  0  0
   -3.7283    0.1665   -0.2443 H   0  0  0  0  0  0  0  0  0  0  0  0
    2.5927    0.4634   -2.2153 H   0  0  0  0  0  0  0  0  0  0  0  0
    4.1495    1.2621   -2.1060 H   0  0  0  0  0  0  0  0  0  0  0  0
    2.6926    2.1261   -1.6667 H   0  0  0  0  0  0  0  0  0  0  0  0
    5.4270    2.6058   -0.7543 H   0  0  0  0  0  0  0  0  0  0  0  0
    5.8168    2.9471    0.9056 H   0  0  0  0  0  0  0  0  0  0  0  0
    6.4957    0.6646    1.3467 H   0  0  0  0  0  0  0  0  0  0  0  0
    5.0047   -1.6517    1.5208 H   0  0  0  0  0  0  0  0  0  0  0  0
   -4.7416   -1.3967    2.1606 H   0  0  0  0  0  0  0  0  0  0  0  0
   -4.7439   -1.9848    0.5092 H   0  0  0  0  0  0  0  0  0  0  0  0
    3.3207   -2.6052   -2.3729 H   0  0  0  0  0  0  0  0  0  0  0  0
   -3.0871    1.0226    2.5801 H   0  0  0  0  0  0  0  0  0  0  0  0
   -4.7112    1.3268    2.0654 H   0  0  0  0  0  0  0  0  0  0  0  0
   -3.3602    1.9983    1.1405 H   0  0  0  0  0  0  0  0  0  0  0  0
    7.9282    2.0197    0.2231 H   0  0  0  0  0  0  0  0  0  0  0  0
   -6.4475    0.2617    1.6234 H   0  0  0  0  0  0  0  0  0  0  0  0
   -6.9191   -1.2883    1.0663 H   0  0  0  0  0  0  0  0  0  0  0  0
   -7.2668   -1.8030   -1.2361 H   0  0  0  0  0  0  0  0  0  0  0  0
   -7.1940   -0.4494   -2.4877 H   0  0  0  0  0  0  0  0  0  0  0  0
   -6.7645    3.3220   -0.2783 H   0  0  0  0  0  0  0  0  0  0  0  0
   -5.4273    2.7724    0.6972 H   0  0  0  0  0  0  0  0  0  0  0  0
   -7.0768    2.1228    0.9378 H   0  0  0  0  0  0  0  0  0  0  0  0
   -5.2379    2.7684   -2.2408 H   0  0  0  0  0  0  0  0  0  0  0  0
   -5.2807    1.0109   -2.8071 H   0  0  0  0  0  0  0  0  0  0  0  0
  1 10  1  0  0  0  0
  1 61  1  0  0  0  0
  2 15  1  0  0  0  0
  2 64  1  0  0  0  0
  3 23  1  0  0  0  0
  3 68  1  0  0  0  0
  4  5  1  0  0  0  0
  4  6  1  0  0  0  0
  4 14  1  0  0  0  0
  4 32  1  0  0  0  0
  5  7  1  0  0  0  0
  5 13  1  0  0  0  0
  5 33  1  0  0  0  0
  6  9  1  0  0  0  0
  6 11  1  0  0  0  0
  6 19  1  0  0  0  0
  7  8  1  0  0  0  0
  7 12  1  0  0  0  0
  7 34  1  0  0  0  0
  8 10  1  0  0  0  0
  8 17  1  0  0  0  0
  8 21  1  0  0  0  0
  9 16  1  0  0  0  0
  9 20  1  0  0  0  0
  9 35  1  0  0  0  0
 10 15  1  0  0  0  0
 10 18  1  0  0  0  0
 11 12  1  0  0  0  0
 11 36  1  0  0  0  0
 11 37  1  0  0  0  0
 12 38  1  0  0  0  0
 12 39  1  0  0  0  0
 13 15  1  0  0  0  0
 13 40  1  0  0  0  0
 13 41  1  0  0  0  0
 14 16  1  0  0  0  0
 14 42  1  0  0  0  0
 14 43  1  0  0  0  0
 15 44  1  0  0  0  0
 16 45  1  0  0  0  0
 16 46  1  0  0  0  0
 17 22  1  0  0  0  0
 17 47  1  0  0  0  0
 17 48  1  0  0  0  0
 18 23  1  0  0  0  0
 18 49  1  0  0  0  0
 18 50  1  0  0  0  0
 19 51  1  0  0  0  0
 19 52  1  0  0  0  0
 19 53  1  0  0  0  0
 20 24  1  0  0  0  0
 20 25  1  0  0  0  0
 20 54  1  0  0  0  0
 21 55  1  0  0  0  0
 21 56  1  0  0  0  0
 21 57  1  0  0  0  0
 22 23  1  0  0  0  0
 22 58  1  0  0  0  0
 22 59  1  0  0  0  0
 23 60  1  0  0  0  0
 24 26  1  0  0  0  0
 24 62  1  0  0  0  0
 24 63  1  0  0  0  0
 25 65  1  0  0  0  0
 25 66  1  0  0  0  0
 25 67  1  0  0  0  0
 26 27  1  0  0  0  0
 26 69  1  0  0  0  0
 26 70  1  0  0  0  0
 27 28  1  0  0  0  0
 27 29  2  0  0  0  0
 28 30  1  0  0  0  0
 28 31  2  0  0  0  0
 29 71  1  0  0  0  0
 29 72  1  0  0  0  0
 30 73  1  0  0  0  0
 30 74  1  0  0  0  0
 30 75  1  0  0  0  0
 31 76  1  0  0  0  0
 31 77  1  0  0  0  0
M  END
> <PUBCHEM_COMPOUND_CID>
129649678

> <PUBCHEM_CONFORMER_RMSD>
1

> <PUBCHEM_CONFORMER_DIVERSEORDER>
12
47
30
48
51
14
35
29
24
42
46
23
31
22
25
34
5
18
15
4
32
50
3
41
39
44
7
36
19
38
26
49
6
13
9
33
10
28
16
11
21
27
40
20
8
37
2
43
17
45
1

> <PUBCHEM_MMFF94_PARTIAL_CHARGES>
19
1 -0.68
10 0.28
15 0.28
2 -0.68
23 0.28
26 0.14
27 -0.14
28 -0.14
29 -0.3
3 -0.68
30 0.14
31 -0.3
61 0.4
64 0.4
68 0.4
71 0.15
72 0.15
76 0.15
77 0.15

> <PUBCHEM_EFFECTIVE_ROTOR_COUNT>
7.2

> <PUBCHEM_PHARMACOPHORE_FEATURES>
13
1 1 acceptor
1 1 donor
1 2 acceptor
1 2 donor
1 25 hydrophobe
1 29 hydrophobe
1 3 acceptor
1 3 donor
5 20 24 26 27 28 hydrophobe
5 4 6 9 14 16 rings
6 4 5 6 7 11 12 rings
6 5 7 8 10 13 15 rings
6 8 10 17 18 22 23 rings

> <PUBCHEM_HEAVY_ATOM_COUNT>
31

> <PUBCHEM_ATOM_DEF_STEREO_COUNT>
7

> <PUBCHEM_ATOM_UDEF_STEREO_COUNT>
3

> <PUBCHEM_BOND_DEF_STEREO_COUNT>
0

> <PUBCHEM_BOND_UDEF_STEREO_COUNT>
0

> <PUBCHEM_ISOTOPIC_ATOM_COUNT>
0

> <PUBCHEM_COMPONENT_COUNT>
1

> <PUBCHEM_CACTVS_TAUTO_COUNT>
1

> <PUBCHEM_CONFORMER_ID>
07BA4C0E0000000C

> <PUBCHEM_MMFF94_ENERGY>
125.0503

> <PUBCHEM_FEATURE_SELFOVERLAP>
66.102

> <PUBCHEM_SHAPE_FINGERPRINT>
10554248 39 18409730630185491974
10835480 77 18409166593330959681
12236239 1 17274827939140271147
12403259 415 18335428946053115979
12422481 6 17240482486002192775
12838862 33 18270950337363519144
13533116 47 17489314044747820194
13811026 1 18413389818068149778
14294032 229 15792563041985880205
14931854 50 18059867155608820264
15131766 46 17026294511698484772
15142383 8 16660637462704560844
15183329 4 18059851771114710421
15238133 3 16588030112615355206
1577012 14 17846224323732539945
15799311 1 14189579641477985917
17349148 13 16630814305218322187
20511986 3 18340476855001401242
20715895 44 18407759227037178512
21033648 144 18411142433401944347
21033648 29 17894920603158473243
21150785 3 17561081436466588461
21279426 13 18338802204608550613
21298829 104 18410859837011651017
21859007 373 17968086478435395460
23522609 53 9366495032210844291
23559900 14 18130786827567126001
23576562 1 18264767851714611245
255183 451 17558284137695724398
2838139 119 18409728461385139113
3004659 81 18335141986139333314
335352 9 18343026606156353982
3633792 109 18343304730314937633
4073 2 18041003980824224866
4169191 19 18410579500090517129
5104073 3 18337124388176704579
5283173 99 18040995095222476709
59755656 215 18410295809295251316
6009941 240 17603588559901083889
6086070 43 17631445825130852242
999808 66 10519991486872144901

> <PUBCHEM_SHAPE_MULTIPOLES>
620.36
18.69
2.45
1.45
6.81
0.2
-0.41
-7.66
-3.33
-0.09
-0.12
1.24
-0.16
1.16

> <PUBCHEM_SHAPE_SELFOVERLAP>
1297.855

> <PUBCHEM_SHAPE_VOLUME>
349.3

> <PUBCHEM_COORDINATE_TYPE>
2
5
10

$$$$
