5276618
  -OEChem-09302011253D

 42 46  0     1  0  0  0  0  0999 V2000
   -0.6930    2.0056    0.8133 O   0  0  0  0  0  0  0  0  0  0  0  0
   -3.2705   -2.3495   -0.9289 O   0  0  0  0  0  0  0  0  0  0  0  0
    1.8233    2.0580   -0.9427 O   0  0  0  0  0  0  0  0  0  0  0  0
    2.2596   -2.9629    0.8968 O   0  0  0  0  0  0  0  0  0  0  0  0
   -5.4978   -1.4198   -0.1751 O   0  0  0  0  0  0  0  0  0  0  0  0
    4.3193    2.4998   -0.5702 O   0  0  0  0  0  0  0  0  0  0  0  0
   -0.6324    0.2877   -0.8941 C   0  0  2  0  0  0  0  0  0  0  0  0
   -1.2142   -1.1399   -0.9896 C   0  0  1  0  0  0  0  0  0  0  0  0
   -0.3660   -2.0132   -0.0505 C   0  0  0  0  0  0  0  0  0  0  0  0
    0.7864   -0.0149   -0.4787 C   0  0  0  0  0  0  0  0  0  0  0  0
    0.9150   -1.2591   -0.0122 C   0  0  0  0  0  0  0  0  0  0  0  0
   -1.2959    1.1381    0.1857 C   0  0  0  0  0  0  0  0  0  0  0  0
   -0.7546    1.0097   -2.2407 C   0  0  0  0  0  0  0  0  0  0  0  0
   -2.6834   -1.3003   -0.6712 C   0  0  0  0  0  0  0  0  0  0  0  0
   -2.7435    0.9560    0.4173 C   0  0  0  0  0  0  0  0  0  0  0  0
   -3.4057   -0.1941   -0.0100 C   0  0  0  0  0  0  0  0  0  0  0  0
    1.9342    0.9091   -0.5354 C   0  0  0  0  0  0  0  0  0  0  0  0
    2.1833   -1.8178    0.4718 C   0  0  0  0  0  0  0  0  0  0  0  0
    3.2392    0.3858   -0.0679 C   0  0  0  0  0  0  0  0  0  0  0  0
    3.3591   -0.9231    0.4163 C   0  0  0  0  0  0  0  0  0  0  0  0
   -4.7821   -0.3279    0.2209 C   0  0  0  0  0  0  0  0  0  0  0  0
   -3.4545    1.9653    1.0813 C   0  0  0  0  0  0  0  0  0  0  0  0
    4.3647    1.2168   -0.1109 C   0  0  0  0  0  0  0  0  0  0  0  0
    4.6010   -1.3961    0.8549 C   0  0  0  0  0  0  0  0  0  0  0  0
   -5.4872    0.6822    0.8758 C   0  0  0  0  0  0  0  0  0  0  0  0
   -4.8235    1.8269    1.3073 C   0  0  0  0  0  0  0  0  0  0  0  0
    5.6007    0.7403    0.3275 C   0  0  0  0  0  0  0  0  0  0  0  0
    5.7186   -0.5624    0.8090 C   0  0  0  0  0  0  0  0  0  0  0  0
   -1.0838   -1.5079   -2.0194 H   0  0  0  0  0  0  0  0  0  0  0  0
   -0.2407   -3.0180   -0.4676 H   0  0  0  0  0  0  0  0  0  0  0  0
   -0.7989   -2.1006    0.9523 H   0  0  0  0  0  0  0  0  0  0  0  0
   -0.4485    2.0592   -2.1689 H   0  0  0  0  0  0  0  0  0  0  0  0
   -0.1390    0.5324   -3.0116 H   0  0  0  0  0  0  0  0  0  0  0  0
   -1.7924    1.0091   -2.5941 H   0  0  0  0  0  0  0  0  0  0  0  0
   -2.9614    2.8718    1.4228 H   0  0  0  0  0  0  0  0  0  0  0  0
    4.7182   -2.4075    1.2345 H   0  0  0  0  0  0  0  0  0  0  0  0
   -6.5546    0.5823    1.0543 H   0  0  0  0  0  0  0  0  0  0  0  0
   -5.3717    2.6130    1.8183 H   0  0  0  0  0  0  0  0  0  0  0  0
    6.4788    1.3802    0.2967 H   0  0  0  0  0  0  0  0  0  0  0  0
    6.6827   -0.9294    1.1492 H   0  0  0  0  0  0  0  0  0  0  0  0
   -4.9750   -1.9678   -0.7798 H   0  0  0  0  0  0  0  0  0  0  0  0
    3.4294    2.7256   -0.8789 H   0  0  0  0  0  0  0  0  0  0  0  0
  1 12  2  0  0  0  0
  2 14  2  0  0  0  0
  3 17  2  0  0  0  0
  4 18  2  0  0  0  0
  5 21  1  0  0  0  0
  5 41  1  0  0  0  0
  6 23  1  0  0  0  0
  6 42  1  0  0  0  0
  7  8  1  0  0  0  0
  7 10  1  0  0  0  0
  7 12  1  0  0  0  0
  7 13  1  0  0  0  0
  8  9  1  0  0  0  0
  8 14  1  0  0  0  0
  8 29  1  0  0  0  0
  9 11  1  0  0  0  0
  9 30  1  0  0  0  0
  9 31  1  0  0  0  0
 10 11  2  0  0  0  0
 10 17  1  0  0  0  0
 11 18  1  0  0  0  0
 12 15  1  0  0  0  0
 13 32  1  0  0  0  0
 13 33  1  0  0  0  0
 13 34  1  0  0  0  0
 14 16  1  0  0  0  0
 15 16  2  0  0  0  0
 15 22  1  0  0  0  0
 16 21  1  0  0  0  0
 17 19  1  0  0  0  0
 18 20  1  0  0  0  0
 19 20  2  0  0  0  0
 19 23  1  0  0  0  0
 20 24  1  0  0  0  0
 21 25  2  0  0  0  0
 22 26  2  0  0  0  0
 22 35  1  0  0  0  0
 23 27  2  0  0  0  0
 24 28  2  0  0  0  0
 24 36  1  0  0  0  0
 25 26  1  0  0  0  0
 25 37  1  0  0  0  0
 26 38  1  0  0  0  0
 27 28  1  0  0  0  0
 27 39  1  0  0  0  0
 28 40  1  0  0  0  0
M  END
> <PUBCHEM_COMPOUND_CID>
5276618

> <PUBCHEM_CONFORMER_RMSD>
0.6

> <PUBCHEM_CONFORMER_DIVERSEORDER>
1
3
2
4

> <PUBCHEM_MMFF94_PARTIAL_CHARGES>
35
1 -0.57
10 -0.12
11 -0.12
12 0.42
14 0.42
15 0.09
16 0.09
17 0.47
18 0.47
19 0.09
2 -0.57
20 0.09
21 0.08
22 -0.15
23 0.08
24 -0.15
25 -0.15
26 -0.15
27 -0.15
28 -0.15
3 -0.57
35 0.15
36 0.15
37 0.15
38 0.15
39 0.15
4 -0.57
40 0.15
41 0.45
42 0.45
5 -0.53
6 -0.53
7 0.2
8 0.06
9 0.14

> <PUBCHEM_EFFECTIVE_ROTOR_COUNT>
0.2

> <PUBCHEM_PHARMACOPHORE_FEATURES>
11
1 1 acceptor
1 2 acceptor
1 3 acceptor
1 4 acceptor
1 5 donor
1 6 donor
5 7 8 9 10 11 rings
6 10 11 17 18 19 20 rings
6 15 16 21 22 25 26 rings
6 19 20 23 24 27 28 rings
6 7 8 12 14 15 16 rings

> <PUBCHEM_HEAVY_ATOM_COUNT>
28

> <PUBCHEM_ATOM_DEF_STEREO_COUNT>
0

> <PUBCHEM_ATOM_UDEF_STEREO_COUNT>
2

> <PUBCHEM_BOND_DEF_STEREO_COUNT>
0

> <PUBCHEM_BOND_UDEF_STEREO_COUNT>
0

> <PUBCHEM_ISOTOPIC_ATOM_COUNT>
0

> <PUBCHEM_COMPONENT_COUNT>
1

> <PUBCHEM_CACTVS_TAUTO_COUNT>
431

> <PUBCHEM_CONFORMER_ID>
005083CA00000001

> <PUBCHEM_MMFF94_ENERGY>
89.7269

> <PUBCHEM_FEATURE_SELFOVERLAP>
56.079

> <PUBCHEM_SHAPE_FINGERPRINT>
105312 117 15697996323561698517
10674148 151 18271537434071289724
10675989 125 16974500465973727329
1100329 8 18339642368340359265
11135609 12 17169567413785219123
11578080 2 17823971243547741013
12107183 9 17835522613523623875
12236239 1 18410573998041627784
12403814 3 18113613469780347613
12422481 6 18262234409119660356
12467345 10 18412827958229183513
12596602 18 18202845443949545632
12633257 1 18408884018868702624
12788726 201 17632306626713697240
12969540 114 14836401406859989765
13140716 1 18116153449162547802
13224815 77 18334573529626544086
13583140 156 17459180781620925589
13782708 43 15502927503723922586
14294032 229 17275387587281732407
14341114 176 18340492161979825723
14341114 328 18342460330816940800
14394314 77 18413393150182998697
14739800 52 17917416632273934824
14787075 74 18412263960562185345
14790565 3 18411704321976067696
14840074 17 17749116625056451532
14849402 71 18337669828393023872
15196674 1 18412546491868767947
15209294 21 18342738507200628752
15238133 3 17917996044715850904
15475509 8 18268729250971484294
17349148 13 17894632560543692744
17980427 23 18342462530594914989
1813 80 17458636570446267590
20028762 73 18411978066181158790
20511986 3 18338222804967406353
20715895 44 17764029069632123113
20739085 24 18040160621446668388
21033648 29 16515671273634287684
21065198 48 18412544284582820355
21267235 1 18409171000320924150
21756936 100 17774993570875724188
21859007 373 17462284634907877237
22182313 1 17750222613289409054
23522609 53 18116739381829303628
23559900 14 17701277827482905783
25147074 1 18337955700349849359
34797466 226 16773522182508281432
350125 39 18408319986926576580
3633792 109 18261940883319428823
3680242 22 18412551981090394640
392239 28 18342468066374781865
4340502 62 18040727947923966859
474 4 18260551164376340392
5104073 3 18336823186631331498
6034566 193 16810693505321531428
7064713 232 18272367529629538536
86090 222 15937553437080507442
9849439 229 16912026318325430241

> <PUBCHEM_SHAPE_MULTIPOLES>
541.01
12.16
2.54
1.21
1.31
0.36
0.34
-1.62
-4.14
0.19
-0.15
-0.44
-0.27
-1.99

> <PUBCHEM_SHAPE_SELFOVERLAP>
1250.3

> <PUBCHEM_SHAPE_VOLUME>
274.6

> <PUBCHEM_COORDINATE_TYPE>
2
5
10

$$$$
