183757
  -OEChem-09302011263D

 42 45  0     0  0  0  0  0  0999 V2000
    0.7885   -1.5742    0.7639 O   0  0  0  0  0  0  0  0  0  0  0  0
   -0.7885   -1.5742   -0.7639 O   0  0  0  0  0  0  0  0  0  0  0  0
    3.5640    2.6297   -0.9926 O   0  0  0  0  0  0  0  0  0  0  0  0
   -3.5640    2.6297    0.9926 O   0  0  0  0  0  0  0  0  0  0  0  0
    2.9228   -2.9667    1.0388 O   0  0  0  0  0  0  0  0  0  0  0  0
   -2.9228   -2.9667   -1.0388 O   0  0  0  0  0  0  0  0  0  0  0  0
    0.7220    0.6454   -0.0645 C   0  0  0  0  0  0  0  0  0  0  0  0
   -0.7220    0.6455    0.0645 C   0  0  0  0  0  0  0  0  0  0  0  0
    1.4239    1.7056   -0.5146 C   0  0  0  0  0  0  0  0  0  0  0  0
   -1.4240    1.7056    0.5146 C   0  0  0  0  0  0  0  0  0  0  0  0
    2.8919   -0.6772    0.2264 C   0  0  0  0  0  0  0  0  0  0  0  0
   -2.8919   -0.6772   -0.2265 C   0  0  0  0  0  0  0  0  0  0  0  0
    1.4262   -0.6149    0.3404 C   0  0  0  0  0  0  0  0  0  0  0  0
   -1.4262   -0.6149   -0.3403 C   0  0  0  0  0  0  0  0  0  0  0  0
    3.6117    0.4202   -0.2306 C   0  0  0  0  0  0  0  0  0  0  0  0
   -3.6117    0.4203    0.2305 C   0  0  0  0  0  0  0  0  0  0  0  0
    2.9180    1.6595   -0.6094 C   0  0  0  0  0  0  0  0  0  0  0  0
   -2.9180    1.6595    0.6095 C   0  0  0  0  0  0  0  0  0  0  0  0
    0.8437    3.0208   -0.9752 C   0  0  0  0  0  0  0  0  0  0  0  0
   -0.8437    3.0208    0.9752 C   0  0  0  0  0  0  0  0  0  0  0  0
    3.5657   -1.8526    0.5851 C   0  0  0  0  0  0  0  0  0  0  0  0
   -3.5657   -1.8526   -0.5850 C   0  0  0  0  0  0  0  0  0  0  0  0
    5.0075    0.3489   -0.3312 C   0  0  0  0  0  0  0  0  0  0  0  0
   -5.0075    0.3488    0.3312 C   0  0  0  0  0  0  0  0  0  0  0  0
    4.9552   -1.9223    0.4837 C   0  0  0  0  0  0  0  0  0  0  0  0
   -4.9552   -1.9222   -0.4837 C   0  0  0  0  0  0  0  0  0  0  0  0
    5.6756   -0.8223    0.0260 C   0  0  0  0  0  0  0  0  0  0  0  0
   -5.6756   -0.8223   -0.0259 C   0  0  0  0  0  0  0  0  0  0  0  0
   -0.1840    2.9692   -1.3400 H   0  0  0  0  0  0  0  0  0  0  0  0
    1.3662    3.2979   -1.9045 H   0  0  0  0  0  0  0  0  0  0  0  0
    1.0602    3.8563   -0.3043 H   0  0  0  0  0  0  0  0  0  0  0  0
   -1.0601    3.8563    0.3043 H   0  0  0  0  0  0  0  0  0  0  0  0
    0.1841    2.9692    1.3400 H   0  0  0  0  0  0  0  0  0  0  0  0
   -1.3662    3.2980    1.9045 H   0  0  0  0  0  0  0  0  0  0  0  0
    5.5925    1.1935   -0.6858 H   0  0  0  0  0  0  0  0  0  0  0  0
   -5.5924    1.1934    0.6858 H   0  0  0  0  0  0  0  0  0  0  0  0
    5.4829   -2.8313    0.7598 H   0  0  0  0  0  0  0  0  0  0  0  0
   -5.4922   -2.8268   -0.7574 H   0  0  0  0  0  0  0  0  0  0  0  0
    6.7575   -0.8758   -0.0530 H   0  0  0  0  0  0  0  0  0  0  0  0
   -6.7574   -0.8756    0.0532 H   0  0  0  0  0  0  0  0  0  0  0  0
    1.9633   -2.8334    1.0406 H   0  0  0  0  0  0  0  0  0  0  0  0
   -3.5726   -3.6646   -1.2290 H   0  0  0  0  0  0  0  0  0  0  0  0
  1 13  2  0  0  0  0
  2 14  2  0  0  0  0
  3 17  2  0  0  0  0
  4 18  2  0  0  0  0
  5 21  1  0  0  0  0
  5 41  1  0  0  0  0
  6 22  1  0  0  0  0
  6 42  1  0  0  0  0
  7  8  1  0  0  0  0
  7  9  2  0  0  0  0
  7 13  1  0  0  0  0
  8 10  2  0  0  0  0
  8 14  1  0  0  0  0
  9 17  1  0  0  0  0
  9 19  1  0  0  0  0
 10 18  1  0  0  0  0
 10 20  1  0  0  0  0
 11 13  1  0  0  0  0
 11 15  2  0  0  0  0
 11 21  1  0  0  0  0
 12 14  1  0  0  0  0
 12 16  2  0  0  0  0
 12 22  1  0  0  0  0
 15 17  1  0  0  0  0
 15 23  1  0  0  0  0
 16 18  1  0  0  0  0
 16 24  1  0  0  0  0
 19 29  1  0  0  0  0
 19 30  1  0  0  0  0
 19 31  1  0  0  0  0
 20 32  1  0  0  0  0
 20 33  1  0  0  0  0
 20 34  1  0  0  0  0
 21 25  2  0  0  0  0
 22 26  2  0  0  0  0
 23 27  2  0  0  0  0
 23 35  1  0  0  0  0
 24 28  2  0  0  0  0
 24 36  1  0  0  0  0
 25 27  1  0  0  0  0
 25 37  1  0  0  0  0
 26 28  1  0  0  0  0
 26 38  1  0  0  0  0
 27 39  1  0  0  0  0
 28 40  1  0  0  0  0
M  END
> <PUBCHEM_COMPOUND_CID>
183757

> <PUBCHEM_CONFORMER_RMSD>
0.6

> <PUBCHEM_CONFORMER_DIVERSEORDER>
1

> <PUBCHEM_MMFF94_PARTIAL_CHARGES>
36
1 -0.57
10 -0.12
11 0.09
12 0.09
13 0.47
14 0.47
15 0.09
16 0.09
17 0.47
18 0.47
19 0.14
2 -0.57
20 0.14
21 0.08
22 0.08
23 -0.15
24 -0.15
25 -0.15
26 -0.15
27 -0.15
28 -0.15
3 -0.57
35 0.15
36 0.15
37 0.15
38 0.15
39 0.15
4 -0.57
40 0.15
41 0.45
42 0.45
5 -0.53
6 -0.53
7 0.01
8 0.01
9 -0.12

> <PUBCHEM_EFFECTIVE_ROTOR_COUNT>
1

> <PUBCHEM_PHARMACOPHORE_FEATURES>
10
1 1 acceptor
1 2 acceptor
1 3 acceptor
1 4 acceptor
1 5 donor
1 6 donor
6 11 15 21 23 25 27 rings
6 12 16 22 24 26 28 rings
6 7 9 11 13 15 17 rings
6 8 10 12 14 16 18 rings

> <PUBCHEM_HEAVY_ATOM_COUNT>
28

> <PUBCHEM_ATOM_DEF_STEREO_COUNT>
0

> <PUBCHEM_ATOM_UDEF_STEREO_COUNT>
0

> <PUBCHEM_BOND_DEF_STEREO_COUNT>
0

> <PUBCHEM_BOND_UDEF_STEREO_COUNT>
0

> <PUBCHEM_ISOTOPIC_ATOM_COUNT>
0

> <PUBCHEM_COMPONENT_COUNT>
1

> <PUBCHEM_CACTVS_TAUTO_COUNT>
155

> <PUBCHEM_CONFORMER_ID>
0002CDCD00000001

> <PUBCHEM_MMFF94_ENERGY>
122.5098

> <PUBCHEM_FEATURE_SELFOVERLAP>
50.871

> <PUBCHEM_SHAPE_FINGERPRINT>
10369192 42 16984305223543129440
10616163 171 18342177769182323439
10622 236 18267563793599271935
1100329 8 18338234976446177115
11135609 187 18043253650877716420
11578080 2 18194655194519787688
11756154 67 17764033467541555678
12107183 9 17906171746066992843
12166972 35 18113620122732266061
12236239 1 18410576184174745665
12467345 10 18410575084663091919
12553582 1 18338782477228180751
12788726 201 18130240323249384273
13009979 54 18343025449897820720
13140716 1 18341329994177518793
13167823 11 18410856563934906275
13533116 47 18338799017194437609
13583140 156 17677340398816542121
14117953 113 18051694335239908493
14341114 176 18410015437682303323
14394314 77 18341900705459208321
15196674 1 18410575088958312549
15250474 111 18411978078780743391
15420108 30 17763469408974576817
15927050 60 17550385580276991268
17349148 13 18410577287981334240
17492 89 18340208488006811231
17818456 19 18272093738476180729
17857418 61 18411135839893493235
1813 80 17531534183315906396
18681886 176 18342736338954320450
19319366 153 17690000454412667629
200 152 18409448093971751713
20028762 73 18413386527717727342
20511986 3 18338785775757535973
20715895 44 17906169552046521109
20775438 99 16330995342751482495
21033648 29 16371274610682019511
21267235 1 18410583885051191843
21792934 111 18343576361812188129
21857420 4 15760998567350908726
23557571 272 17704078365002743008
23559900 14 18341322396659940585
23598288 3 18131061649961189989
25147074 1 18338813259253626849
3004659 81 18334290985144863470
335352 9 18342174463038239301
3411729 13 16772097271294651072
34797466 226 17203334446634708716
350125 39 18410856546897650273
3633792 109 18260535724654856951
4214541 1 18411699855215231177
439807 62 18264208183823546195
46194498 28 17095803333933372588
463206 1 18338799051580822643
474 4 17969226809807119532
5104073 3 18342742935470401169
5312544 6 18263086664028555980
67856867 119 18339078293506907160
9849439 229 16481653260493296201
9981440 41 17327738912438906328

> <PUBCHEM_SHAPE_MULTIPOLES>
541.01
11.66
3.42
0.93
0
0.79
0
-5.37
0
0
0
0
0.13
-2.34

> <PUBCHEM_SHAPE_SELFOVERLAP>
1237.733

> <PUBCHEM_SHAPE_VOLUME>
277.7

> <PUBCHEM_COORDINATE_TYPE>
2
5
10

$$$$
