827487
  -OEChem-09302011103D

 30 31  0     0  0  0  0  0  0999 V2000
   -2.0874   -1.1210   -0.0792 O   0  0  0  0  0  0  0  0  0  0  0  0
    1.5475    2.0643    0.1354 O   0  0  0  0  0  0  0  0  0  0  0  0
    3.8993    1.0252   -0.4926 O   0  0  0  0  0  0  0  0  0  0  0  0
   -3.0850   -0.0808    0.0100 C   0  0  0  0  0  0  0  0  0  0  0  0
   -2.5607    1.3324    0.1109 C   0  0  0  0  0  0  0  0  0  0  0  0
   -0.3060    0.5356    0.0340 C   0  0  0  0  0  0  0  0  0  0  0  0
   -0.7646   -0.7798   -0.0622 C   0  0  0  0  0  0  0  0  0  0  0  0
   -3.9267   -0.3969    1.2523 C   0  0  0  0  0  0  0  0  0  0  0  0
   -3.9528   -0.2081   -1.2475 C   0  0  0  0  0  0  0  0  0  0  0  0
   -1.2593    1.6279    0.1226 C   0  0  0  0  0  0  0  0  0  0  0  0
    1.0714    0.7868    0.0429 C   0  0  0  0  0  0  0  0  0  0  0  0
    0.1466   -1.8359   -0.1489 C   0  0  0  0  0  0  0  0  0  0  0  0
    1.9794   -0.2695   -0.0436 C   0  0  0  0  0  0  0  0  0  0  0  0
    1.5172   -1.5802   -0.1394 C   0  0  0  0  0  0  0  0  0  0  0  0
    3.4159   -0.0281   -0.0350 C   0  0  0  0  0  0  0  0  0  0  0  0
    4.3651   -1.0721    0.5402 C   0  0  0  0  0  0  0  0  0  0  0  0
   -3.2826    2.1428    0.1773 H   0  0  0  0  0  0  0  0  0  0  0  0
   -4.3312   -1.4147    1.2014 H   0  0  0  0  0  0  0  0  0  0  0  0
   -3.3133   -0.3547    2.1604 H   0  0  0  0  0  0  0  0  0  0  0  0
   -4.7636    0.3004    1.3701 H   0  0  0  0  0  0  0  0  0  0  0  0
   -3.3584   -0.0291   -2.1516 H   0  0  0  0  0  0  0  0  0  0  0  0
   -4.3577   -1.2226   -1.3416 H   0  0  0  0  0  0  0  0  0  0  0  0
   -4.7909    0.4975   -1.2418 H   0  0  0  0  0  0  0  0  0  0  0  0
   -0.9233    2.6549    0.1966 H   0  0  0  0  0  0  0  0  0  0  0  0
   -0.2060   -2.8611   -0.2273 H   0  0  0  0  0  0  0  0  0  0  0  0
    2.1982   -2.4226   -0.2227 H   0  0  0  0  0  0  0  0  0  0  0  0
    2.5070    2.0720    0.2753 H   0  0  0  0  0  0  0  0  0  0  0  0
    4.6581   -1.7736   -0.2446 H   0  0  0  0  0  0  0  0  0  0  0  0
    3.8993   -1.6042    1.3741 H   0  0  0  0  0  0  0  0  0  0  0  0
    5.2550   -0.5681    0.9296 H   0  0  0  0  0  0  0  0  0  0  0  0
  1  4  1  0  0  0  0
  1  7  1  0  0  0  0
  2 11  1  0  0  0  0
  2 27  1  0  0  0  0
  3 15  2  0  0  0  0
  4  5  1  0  0  0  0
  4  8  1  0  0  0  0
  4  9  1  0  0  0  0
  5 10  2  0  0  0  0
  5 17  1  0  0  0  0
  6  7  2  0  0  0  0
  6 10  1  0  0  0  0
  6 11  1  0  0  0  0
  7 12  1  0  0  0  0
  8 18  1  0  0  0  0
  8 19  1  0  0  0  0
  8 20  1  0  0  0  0
  9 21  1  0  0  0  0
  9 22  1  0  0  0  0
  9 23  1  0  0  0  0
 10 24  1  0  0  0  0
 11 13  2  0  0  0  0
 12 14  2  0  0  0  0
 12 25  1  0  0  0  0
 13 14  1  0  0  0  0
 13 15  1  0  0  0  0
 14 26  1  0  0  0  0
 15 16  1  0  0  0  0
 16 28  1  0  0  0  0
 16 29  1  0  0  0  0
 16 30  1  0  0  0  0
M  END
> <PUBCHEM_COMPOUND_CID>
827487

> <PUBCHEM_CONFORMER_RMSD>
0.6

> <PUBCHEM_CONFORMER_DIVERSEORDER>
1
2

> <PUBCHEM_MMFF94_PARTIAL_CHARGES>
19
1 -0.36
10 -0.18
11 0.08
12 -0.15
13 0.09
14 -0.15
15 0.42
16 0.06
17 0.15
2 -0.53
24 0.15
25 0.15
26 0.15
27 0.45
3 -0.57
4 0.42
5 -0.29
6 0.03
7 0.08

> <PUBCHEM_EFFECTIVE_ROTOR_COUNT>
1.4

> <PUBCHEM_PHARMACOPHORE_FEATURES>
6
1 1 acceptor
1 2 donor
1 3 acceptor
3 4 8 9 hydrophobe
6 1 4 5 6 7 10 rings
6 6 7 11 12 13 14 rings

> <PUBCHEM_HEAVY_ATOM_COUNT>
16

> <PUBCHEM_ATOM_DEF_STEREO_COUNT>
0

> <PUBCHEM_ATOM_UDEF_STEREO_COUNT>
0

> <PUBCHEM_BOND_DEF_STEREO_COUNT>
0

> <PUBCHEM_BOND_UDEF_STEREO_COUNT>
0

> <PUBCHEM_ISOTOPIC_ATOM_COUNT>
0

> <PUBCHEM_COMPONENT_COUNT>
1

> <PUBCHEM_CACTVS_TAUTO_COUNT>
9

> <PUBCHEM_CONFORMER_ID>
000CA05F00000001

> <PUBCHEM_MMFF94_ENERGY>
52.5763

> <PUBCHEM_FEATURE_SELFOVERLAP>
30.475

> <PUBCHEM_SHAPE_FINGERPRINT>
10062212 137 18338791217544247787
10608611 8 18409728417781500780
10967382 1 18411701006234707582
11132069 177 18342450431123064666
11401426 45 18342727512084428991
11471102 20 18410569595700169070
12032990 46 18339085887008794134
12236239 1 17704072902585031703
124424 183 18113330895065207587
13140716 1 18268431419762570459
13221675 6 18412263938829074055
13380535 76 18411136922352378598
13690532 89 18410288103659718054
13760787 5 18409450288610317286
13862211 1 18411693266967871510
14144814 61 18411139117001019504
14325111 11 18410576154368586868
14576447 43 18058430154062127559
14993402 34 18409730668707997116
15196674 1 18410856546765482656
15209294 21 17632024039651127841
15309172 13 18272092682040754795
15375462 189 18413109441869740299
15536298 74 18129381501794688758
16945 1 18412545413958707063
17802600 8 18411973654863863804
17844478 74 18187092749828186465
18186145 218 18131635612079012248
18522853 276 18341610399817889096
19026448 4 16660081113667584318
200 152 18130213909532556925
20201158 50 18410009923081243907
20645477 70 18337383838614134399
21267235 1 18410582751554664418
21501502 16 18268145345081301931
2334 1 17907858757660329871
23402539 116 18200583722861581046
23402655 69 18270106917318571501
23463225 33 18336263440797345794
23493267 7 17531238440378846697
23559900 14 18272655701541789036
2748010 2 18052822446584981111
296302 2 15140968348199123910
3286 77 16988550364364163185
474 4 17169561920453611940
5104073 3 18409731742165212640
528886 8 18412258458445497226
53655031 270 18412826858733444730
53812653 166 18272086097966367760
69090 78 17989199369547575118
8809292 202 18187652443874956235
9709674 26 18340492166412313278

> <PUBCHEM_SHAPE_MULTIPOLES>
311.66
7.41
1.78
0.84
1.5
0.23
0.02
-0.6
0.27
0.43
0
-0.69
-0.1
-0.19

> <PUBCHEM_SHAPE_SELFOVERLAP>
672.012

> <PUBCHEM_SHAPE_VOLUME>
172.9

> <PUBCHEM_COORDINATE_TYPE>
2
5
10

$$$$
