21637743
  -OEChem-08282001223D

104109  0     1  0  0  0  0  0999 V2000
   -1.0474    4.2154    1.2724 O   0  0  0  0  0  0  0  0  0  0  0  0
    7.2579   -1.4048   -1.7730 O   0  0  0  0  0  0  0  0  0  0  0  0
    6.6617    1.6879    0.0449 O   0  0  0  0  0  0  0  0  0  0  0  0
   -3.7652   -0.2026    0.8653 O   0  0  0  0  0  0  0  0  0  0  0  0
    7.5524   -3.2370    0.2224 O   0  0  0  0  0  0  0  0  0  0  0  0
   -2.5891    0.0510   -1.1068 O   0  0  0  0  0  0  0  0  0  0  0  0
    5.2870   -3.4848    0.1720 O   0  0  0  0  0  0  0  0  0  0  0  0
   -5.1140   -1.0593   -0.8351 O   0  0  0  0  0  0  0  0  0  0  0  0
   -4.5381   -2.3547    2.5323 O   0  0  0  0  0  0  0  0  0  0  0  0
   -7.2004   -3.3966    1.8203 O   0  0  0  0  0  0  0  0  0  0  0  0
   -7.3424   -3.9603   -1.0114 O   0  0  0  0  0  0  0  0  0  0  0  0
   -5.3581   -1.2338   -3.5675 O   0  0  0  0  0  0  0  0  0  0  0  0
    1.7910   -0.1931    0.5267 C   0  0  2  0  0  0  0  0  0  0  0  0
    2.7792    0.4421   -0.5261 C   0  0  1  0  0  0  0  0  0  0  0  0
    4.1648   -0.2969   -0.8136 C   0  0  2  0  0  0  0  0  0  0  0  0
    0.6834    0.9477    0.9426 C   0  0  1  0  0  0  0  0  0  0  0  0
    4.8029   -0.6954    0.5581 C   0  0  1  0  0  0  0  0  0  0  0  0
    2.5891   -0.6909    1.7624 C   0  0  0  0  0  0  0  0  0  0  0  0
    0.0766    1.6061   -0.3157 C   0  0  0  0  0  0  0  0  0  0  0  0
   -1.2895    2.3221   -0.2637 C   0  0  1  0  0  0  0  0  0  0  0  0
    3.8253   -1.5224    1.4179 C   0  0  0  0  0  0  0  0  0  0  0  0
   -2.3066    1.6395    0.7038 C   0  0  1  0  0  0  0  0  0  0  0  0
   -0.4380    0.3070    1.8114 C   0  0  0  0  0  0  0  0  0  0  0  0
    2.0016    0.8425   -1.7947 C   0  0  0  0  0  0  0  0  0  0  0  0
    6.2586   -1.2794    0.4850 C   0  0  1  0  0  0  0  0  0  0  0  0
    5.1168    0.7143   -1.5569 C   0  0  0  0  0  0  0  0  0  0  0  0
   -1.6629    1.1938    2.0296 C   0  0  0  0  0  0  0  0  0  0  0  0
    1.0551   -1.4311   -0.0740 C   0  0  0  0  0  0  0  0  0  0  0  0
    0.6901    1.5102   -1.5147 C   0  0  0  0  0  0  0  0  0  0  0  0
   -1.2874    3.8870   -0.0966 C   0  0  1  0  0  0  0  0  0  0  0  0
    4.0039   -1.5208   -1.7493 C   0  0  0  0  0  0  0  0  0  0  0  0
    7.1211   -0.5821   -0.6140 C   0  0  2  0  0  0  0  0  0  0  0  0
    1.3352    2.0779    1.7896 C   0  0  0  0  0  0  0  0  0  0  0  0
    6.5653    0.7752   -1.0474 C   0  0  2  0  0  0  0  0  0  0  0  0
   -3.5167    2.5552    1.0184 C   0  0  0  0  0  0  0  0  0  0  0  0
   -2.6969    4.4390   -0.5100 C   0  0  1  0  0  0  0  0  0  0  0  0
   -3.8537    3.4814   -0.1453 C   0  0  0  0  0  0  0  0  0  0  0  0
    6.9522   -1.0591    1.8553 C   0  0  0  0  0  0  0  0  0  0  0  0
   -2.8850    0.4114    0.0244 C   0  0  0  0  0  0  0  0  0  0  0  0
    6.2782   -2.7777    0.2763 C   0  0  0  0  0  0  0  0  0  0  0  0
   -0.1950    4.5772   -0.9305 C   0  0  0  0  0  0  0  0  0  0  0  0
   -2.9970    5.8386    0.0470 C   0  0  0  0  0  0  0  0  0  0  0  0
   -4.3874   -1.3789    0.3492 C   0  0  2  0  0  0  0  0  0  0  0  0
   -5.3278   -1.9242    1.4240 C   0  0  1  0  0  0  0  0  0  0  0  0
   -6.1496   -3.1014    0.8987 C   0  0  2  0  0  0  0  0  0  0  0  0
   -5.7425   -2.2023   -1.4177 C   0  0  1  0  0  0  0  0  0  0  0  0
   -6.7842   -2.7739   -0.4530 C   0  0  1  0  0  0  0  0  0  0  0  0
   -6.3746   -1.7590   -2.7333 C   0  0  0  0  0  0  0  0  0  0  0  0
    3.1035    1.3877   -0.0727 H   0  0  0  0  0  0  0  0  0  0  0  0
    4.9063    0.2551    1.1050 H   0  0  0  0  0  0  0  0  0  0  0  0
    1.9414   -1.2756    2.4267 H   0  0  0  0  0  0  0  0  0  0  0  0
    2.9489    0.1517    2.3589 H   0  0  0  0  0  0  0  0  0  0  0  0
   -1.6944    2.1985   -1.2820 H   0  0  0  0  0  0  0  0  0  0  0  0
    3.4816   -2.4349    0.9298 H   0  0  0  0  0  0  0  0  0  0  0  0
    4.2972   -1.8249    2.3584 H   0  0  0  0  0  0  0  0  0  0  0  0
   -0.0346    0.0262    2.7924 H   0  0  0  0  0  0  0  0  0  0  0  0
   -0.8061   -0.6206    1.3658 H   0  0  0  0  0  0  0  0  0  0  0  0
    1.7855   -0.0284   -2.4208 H   0  0  0  0  0  0  0  0  0  0  0  0
    2.6058    1.5251   -2.4023 H   0  0  0  0  0  0  0  0  0  0  0  0
    5.1372    0.4696   -2.6272 H   0  0  0  0  0  0  0  0  0  0  0  0
    4.7086    1.7308   -1.5003 H   0  0  0  0  0  0  0  0  0  0  0  0
   -2.3782    0.6457    2.6564 H   0  0  0  0  0  0  0  0  0  0  0  0
   -1.3772    2.0650    2.6290 H   0  0  0  0  0  0  0  0  0  0  0  0
    1.7182   -2.1227   -0.5828 H   0  0  0  0  0  0  0  0  0  0  0  0
    0.2801   -1.1531   -0.7942 H   0  0  0  0  0  0  0  0  0  0  0  0
    0.5714   -2.0276    0.7076 H   0  0  0  0  0  0  0  0  0  0  0  0
    0.2135    1.9437   -2.3917 H   0  0  0  0  0  0  0  0  0  0  0  0
    4.9663   -1.9015   -2.0953 H   0  0  0  0  0  0  0  0  0  0  0  0
    3.4534   -1.2718   -2.6606 H   0  0  0  0  0  0  0  0  0  0  0  0
    3.5067   -2.3674   -1.2822 H   0  0  0  0  0  0  0  0  0  0  0  0
    8.1391   -0.4181   -0.2369 H   0  0  0  0  0  0  0  0  0  0  0  0
    1.7171    1.7082    2.7454 H   0  0  0  0  0  0  0  0  0  0  0  0
    2.1513    2.5858    1.2694 H   0  0  0  0  0  0  0  0  0  0  0  0
    0.6243    2.8558    2.0622 H   0  0  0  0  0  0  0  0  0  0  0  0
    7.1910    1.1799   -1.8525 H   0  0  0  0  0  0  0  0  0  0  0  0
   -4.4192    1.9919    1.2828 H   0  0  0  0  0  0  0  0  0  0  0  0
   -3.3063    3.1767    1.8985 H   0  0  0  0  0  0  0  0  0  0  0  0
   -2.7160    4.5297   -1.6056 H   0  0  0  0  0  0  0  0  0  0  0  0
   -4.0963    2.8685   -1.0235 H   0  0  0  0  0  0  0  0  0  0  0  0
   -4.7680    4.0417    0.0842 H   0  0  0  0  0  0  0  0  0  0  0  0
    8.0077   -1.3560    1.8363 H   0  0  0  0  0  0  0  0  0  0  0  0
    6.4805   -1.6462    2.6507 H   0  0  0  0  0  0  0  0  0  0  0  0
    6.9223   -0.0060    2.1549 H   0  0  0  0  0  0  0  0  0  0  0  0
   -0.2949    4.3499   -1.9962 H   0  0  0  0  0  0  0  0  0  0  0  0
    0.8058    4.2859   -0.5938 H   0  0  0  0  0  0  0  0  0  0  0  0
   -0.2312    5.6656   -0.8145 H   0  0  0  0  0  0  0  0  0  0  0  0
   -3.1044    5.8245    1.1367 H   0  0  0  0  0  0  0  0  0  0  0  0
   -2.2116    6.5537   -0.2128 H   0  0  0  0  0  0  0  0  0  0  0  0
   -3.9341    6.2231   -0.3712 H   0  0  0  0  0  0  0  0  0  0  0  0
   -0.8622    5.1670    1.3386 H   0  0  0  0  0  0  0  0  0  0  0  0
    7.8850   -2.1163   -1.5593 H   0  0  0  0  0  0  0  0  0  0  0  0
    6.3664    2.5588   -0.2708 H   0  0  0  0  0  0  0  0  0  0  0  0
    7.5863   -4.2080    0.0880 H   0  0  0  0  0  0  0  0  0  0  0  0
   -3.5974   -2.1081    0.1221 H   0  0  0  0  0  0  0  0  0  0  0  0
   -5.9868   -1.1303    1.7950 H   0  0  0  0  0  0  0  0  0  0  0  0
   -5.5373   -4.0084    0.8334 H   0  0  0  0  0  0  0  0  0  0  0  0
   -4.9674   -2.9462   -1.6475 H   0  0  0  0  0  0  0  0  0  0  0  0
   -7.6057   -2.0611   -0.3113 H   0  0  0  0  0  0  0  0  0  0  0  0
   -3.9422   -3.0582    2.2230 H   0  0  0  0  0  0  0  0  0  0  0  0
   -6.8558   -2.5950   -3.2497 H   0  0  0  0  0  0  0  0  0  0  0  0
   -7.1102   -0.9655   -2.5647 H   0  0  0  0  0  0  0  0  0  0  0  0
   -7.7531   -2.6021    1.9135 H   0  0  0  0  0  0  0  0  0  0  0  0
   -6.6191   -4.5945   -1.1538 H   0  0  0  0  0  0  0  0  0  0  0  0
   -5.7828   -0.9540   -4.3962 H   0  0  0  0  0  0  0  0  0  0  0  0
  1 30  1  0  0  0  0
  1 90  1  0  0  0  0
  2 32  1  0  0  0  0
  2 91  1  0  0  0  0
  3 34  1  0  0  0  0
  3 92  1  0  0  0  0
  4 39  1  0  0  0  0
  4 43  1  0  0  0  0
  5 40  1  0  0  0  0
  5 93  1  0  0  0  0
  6 39  2  0  0  0  0
  7 40  2  0  0  0  0
  8 43  1  0  0  0  0
  8 46  1  0  0  0  0
  9 44  1  0  0  0  0
  9 99  1  0  0  0  0
 10 45  1  0  0  0  0
 10102  1  0  0  0  0
 11 47  1  0  0  0  0
 11103  1  0  0  0  0
 12 48  1  0  0  0  0
 12104  1  0  0  0  0
 13 14  1  0  0  0  0
 13 16  1  0  0  0  0
 13 18  1  0  0  0  0
 13 28  1  0  0  0  0
 14 15  1  0  0  0  0
 14 24  1  0  0  0  0
 14 49  1  0  0  0  0
 15 17  1  0  0  0  0
 15 26  1  0  0  0  0
 15 31  1  0  0  0  0
 16 19  1  0  0  0  0
 16 23  1  0  0  0  0
 16 33  1  0  0  0  0
 17 21  1  0  0  0  0
 17 25  1  0  0  0  0
 17 50  1  0  0  0  0
 18 21  1  0  0  0  0
 18 51  1  0  0  0  0
 18 52  1  0  0  0  0
 19 20  1  0  0  0  0
 19 29  2  0  0  0  0
 20 22  1  0  0  0  0
 20 30  1  0  0  0  0
 20 53  1  0  0  0  0
 21 54  1  0  0  0  0
 21 55  1  0  0  0  0
 22 27  1  0  0  0  0
 22 35  1  0  0  0  0
 22 39  1  0  0  0  0
 23 27  1  0  0  0  0
 23 56  1  0  0  0  0
 23 57  1  0  0  0  0
 24 29  1  0  0  0  0
 24 58  1  0  0  0  0
 24 59  1  0  0  0  0
 25 32  1  0  0  0  0
 25 38  1  0  0  0  0
 25 40  1  0  0  0  0
 26 34  1  0  0  0  0
 26 60  1  0  0  0  0
 26 61  1  0  0  0  0
 27 62  1  0  0  0  0
 27 63  1  0  0  0  0
 28 64  1  0  0  0  0
 28 65  1  0  0  0  0
 28 66  1  0  0  0  0
 29 67  1  0  0  0  0
 30 36  1  0  0  0  0
 30 41  1  0  0  0  0
 31 68  1  0  0  0  0
 31 69  1  0  0  0  0
 31 70  1  0  0  0  0
 32 34  1  0  0  0  0
 32 71  1  0  0  0  0
 33 72  1  0  0  0  0
 33 73  1  0  0  0  0
 33 74  1  0  0  0  0
 34 75  1  0  0  0  0
 35 37  1  0  0  0  0
 35 76  1  0  0  0  0
 35 77  1  0  0  0  0
 36 37  1  0  0  0  0
 36 42  1  0  0  0  0
 36 78  1  0  0  0  0
 37 79  1  0  0  0  0
 37 80  1  0  0  0  0
 38 81  1  0  0  0  0
 38 82  1  0  0  0  0
 38 83  1  0  0  0  0
 41 84  1  0  0  0  0
 41 85  1  0  0  0  0
 41 86  1  0  0  0  0
 42 87  1  0  0  0  0
 42 88  1  0  0  0  0
 42 89  1  0  0  0  0
 43 44  1  0  0  0  0
 43 94  1  0  0  0  0
 44 45  1  0  0  0  0
 44 95  1  0  0  0  0
 45 47  1  0  0  0  0
 45 96  1  0  0  0  0
 46 47  1  0  0  0  0
 46 48  1  0  0  0  0
 46 97  1  0  0  0  0
 47 98  1  0  0  0  0
 48100  1  0  0  0  0
 48101  1  0  0  0  0
M  END
> <PUBCHEM_COMPOUND_CID>
21637743

> <PUBCHEM_CONFORMER_RMSD>
1.2

> <PUBCHEM_CONFORMER_DIVERSEORDER>
4
2
12
13
19
24
18
9
6
20
15
5
3
10
8
21
1
22
14
11
7
16
17
23

> <PUBCHEM_MMFF94_PARTIAL_CHARGES>
39
1 -0.68
10 -0.68
102 0.4
103 0.4
104 0.4
11 -0.68
12 -0.68
16 0.14
19 -0.28
2 -0.68
20 0.14
22 0.06
24 0.14
25 0.06
29 -0.29
3 -0.68
30 0.28
32 0.28
34 0.28
39 0.66
4 -0.43
40 0.66
43 0.56
44 0.28
45 0.28
46 0.28
47 0.28
48 0.28
5 -0.65
6 -0.57
67 0.15
7 -0.57
8 -0.56
9 -0.68
90 0.4
91 0.4
92 0.4
93 0.5
99 0.4

> <PUBCHEM_EFFECTIVE_ROTOR_COUNT>
8.8

> <PUBCHEM_PHARMACOPHORE_FEATURES>
25
1 1 acceptor
1 1 donor
1 10 acceptor
1 10 donor
1 11 acceptor
1 11 donor
1 12 acceptor
1 12 donor
1 2 acceptor
1 2 donor
1 3 acceptor
1 3 donor
1 5 acceptor
1 6 acceptor
1 7 acceptor
1 8 acceptor
1 9 acceptor
1 9 donor
3 5 7 40 anion
6 13 14 15 17 18 21 rings
6 13 14 16 19 24 29 rings
6 15 17 25 26 32 34 rings
6 16 19 20 22 23 27 rings
6 20 22 30 35 36 37 rings
6 8 43 44 45 46 47 rings

> <PUBCHEM_HEAVY_ATOM_COUNT>
48

> <PUBCHEM_ATOM_DEF_STEREO_COUNT>
17

> <PUBCHEM_ATOM_UDEF_STEREO_COUNT>
0

> <PUBCHEM_BOND_DEF_STEREO_COUNT>
0

> <PUBCHEM_BOND_UDEF_STEREO_COUNT>
0

> <PUBCHEM_ISOTOPIC_ATOM_COUNT>
0

> <PUBCHEM_COMPONENT_COUNT>
1

> <PUBCHEM_CACTVS_TAUTO_COUNT>
1

> <PUBCHEM_CONFORMER_ID>
014A2A6F00000004

> <PUBCHEM_MMFF94_ENERGY>
209.3955

> <PUBCHEM_FEATURE_SELFOVERLAP>
127.036

> <PUBCHEM_SHAPE_FINGERPRINT>
10622 236 18259705575204148614
11115154 58 18260829332888064313
11497681 19 18409453566593803238
117089 54 18190469457665588099
1200032 147 13479676609336232157
12106331 60 18410579478525971006
131258 43 18336552723650567420
13636023 20 16805873099967591711
13690498 29 18342455933034388037
13782708 43 18201720631044338602
13811026 1 18409161121326132346
14068700 675 18335983146778659061
14118638 360 18334861628212854662
14856354 85 18127974109510083964
15064986 96 11383297204890745709
15131766 46 14639716415976236093
15324884 4 17700658892415341385
15361156 5 18412543198241073833
15444296 8 18411421731114962933
15876981 60 18261402117815713637
15968369 26 17395012501667333985
17686467 74 18412539951409530264
19303781 99 18128246986611134591
19315092 285 17775005755950995497
20775438 99 17615399694702312067
21223535 225 14056985114763929655
21639891 77 18130505249701747321
3504750 166 17972310716826909074
4144715 1 18054514608709451768
42767 28 17023178357820889091
44880568 143 16660358194893051286
49967989 163 18333736810216284271
5028188 123 18263937536754619806
5080951 261 18130220459542617665
508180 173 15502370149680377901
513202 73 18343862212917409527
6057620 51 18187941624798410492
6691757 9 18128825136601522457
6700243 42 17913804693279390948
9555976 147 18057050108203230080

> <PUBCHEM_SHAPE_MULTIPOLES>
917.39
20.5
5.91
2.21
10.01
5.88
-0.59
-25.7
-3.77
-10.02
0.16
-1.86
-1.03
-1.14

> <PUBCHEM_SHAPE_SELFOVERLAP>
1960.745

> <PUBCHEM_SHAPE_VOLUME>
498.2

> <PUBCHEM_COORDINATE_TYPE>
2
5
10

$$$$
