44557350
  -OEChem-08282000543D

101106  0     1  0  0  0  0  0999 V2000
   -7.2288   -2.0183    1.9381 O   0  0  0  0  0  0  0  0  0  0  0  0
   -6.8830    1.2778    0.4739 O   0  0  0  0  0  0  0  0  0  0  0  0
    3.5271    0.0494   -0.8344 O   0  0  0  0  0  0  0  0  0  0  0  0
    2.1508    0.2781    1.0068 O   0  0  0  0  0  0  0  0  0  0  0  0
    5.1538   -0.5130    0.7408 O   0  0  0  0  0  0  0  0  0  0  0  0
    3.9277   -2.4463   -2.1068 O   0  0  0  0  0  0  0  0  0  0  0  0
    6.6545   -3.4758   -1.6753 O   0  0  0  0  0  0  0  0  0  0  0  0
    7.3152   -3.4429    1.1386 O   0  0  0  0  0  0  0  0  0  0  0  0
    5.9040   -0.1273    3.3568 O   0  0  0  0  0  0  0  0  0  0  0  0
   -2.0482   -0.4249   -0.7376 C   0  0  2  0  0  0  0  0  0  0  0  0
   -4.2768   -0.7393    0.7972 C   0  0  2  0  0  0  0  0  0  0  0  0
   -2.9328    0.0597    0.4749 C   0  0  1  0  0  0  0  0  0  0  0  0
   -5.0481   -0.9727   -0.5453 C   0  0  2  0  0  0  0  0  0  0  0  0
   -0.9961    0.7712   -1.1157 C   0  0  1  0  0  0  0  0  0  0  0  0
   -2.9578   -0.7732   -1.9453 C   0  0  0  0  0  0  0  0  0  0  0  0
   -6.4893   -1.6058   -0.4101 C   0  0  0  0  0  0  0  0  0  0  0  0
   -4.1521   -1.6602   -1.5961 C   0  0  0  0  0  0  0  0  0  0  0  0
   -5.1547    0.1512    1.7530 C   0  0  0  0  0  0  0  0  0  0  0  0
   -2.0340    0.3073    1.7072 C   0  0  0  0  0  0  0  0  0  0  0  0
   -0.3743    1.3985    0.1482 C   0  0  0  0  0  0  0  0  0  0  0  0
    0.1459    0.2226   -2.0305 C   0  0  0  0  0  0  0  0  0  0  0  0
   -7.2291   -1.0756    0.8676 C   0  0  2  0  0  0  0  0  0  0  0  0
   -6.6510    0.2302    1.4135 C   0  0  2  0  0  0  0  0  0  0  0  0
   -1.2624   -1.7171   -0.3617 C   0  0  0  0  0  0  0  0  0  0  0  0
   -4.0083   -2.0676    1.5468 C   0  0  0  0  0  0  0  0  0  0  0  0
   -0.8209    1.1269    1.3895 C   0  0  0  0  0  0  0  0  0  0  0  0
    1.8857    1.7331   -0.9119 C   0  0  2  0  0  0  0  0  0  0  0  0
   -1.6973    1.9317   -1.8860 C   0  0  0  0  0  0  0  0  0  0  0  0
    1.3140    1.1912   -2.2393 C   0  0  0  0  0  0  0  0  0  0  0  0
    0.7668    2.3160   -0.0553 C   0  0  0  0  0  0  0  0  0  0  0  0
   -6.4815   -3.1505   -0.4606 C   0  0  0  0  0  0  0  0  0  0  0  0
   -7.3229   -1.1521   -1.6458 C   0  0  0  0  0  0  0  0  0  0  0  0
    3.0278    2.7183   -1.2451 C   0  0  0  0  0  0  0  0  0  0  0  0
    0.8045    3.5867    0.4258 C   0  0  0  0  0  0  0  0  0  0  0  0
    2.0218    4.4875    0.2404 C   0  0  1  0  0  0  0  0  0  0  0  0
    3.2867    3.6897   -0.1017 C   0  0  0  0  0  0  0  0  0  0  0  0
    2.5153    0.6102   -0.1131 C   0  0  0  0  0  0  0  0  0  0  0  0
   -0.3231    4.2478    1.1888 C   0  0  0  0  0  0  0  0  0  0  0  0
    1.7589    5.5683   -0.8183 C   0  0  0  0  0  0  0  0  0  0  0  0
    4.2110   -1.0285   -0.1961 C   0  0  2  0  0  0  0  0  0  0  0  0
    4.9207   -1.8423   -1.2781 C   0  0  1  0  0  0  0  0  0  0  0  0
    5.8022   -2.9314   -0.6665 C   0  0  2  0  0  0  0  0  0  0  0  0
    5.8570   -1.5451    1.4348 C   0  0  1  0  0  0  0  0  0  0  0  0
    6.6864   -2.3678    0.4460 C   0  0  1  0  0  0  0  0  0  0  0  0
    6.7344   -0.8758    2.4880 C   0  0  0  0  0  0  0  0  0  0  0  0
   -3.3002    1.0518    0.1753 H   0  0  0  0  0  0  0  0  0  0  0  0
   -5.2168    0.0379   -0.9499 H   0  0  0  0  0  0  0  0  0  0  0  0
   -2.3727   -1.2556   -2.7376 H   0  0  0  0  0  0  0  0  0  0  0  0
   -3.3764    0.1347   -2.3899 H   0  0  0  0  0  0  0  0  0  0  0  0
   -4.7128   -1.8287   -2.5218 H   0  0  0  0  0  0  0  0  0  0  0  0
   -3.8137   -2.6454   -1.2632 H   0  0  0  0  0  0  0  0  0  0  0  0
   -5.0512   -0.2161    2.7828 H   0  0  0  0  0  0  0  0  0  0  0  0
   -4.7702    1.1785    1.7730 H   0  0  0  0  0  0  0  0  0  0  0  0
   -1.6877   -0.6278    2.1567 H   0  0  0  0  0  0  0  0  0  0  0  0
   -2.6026    0.8366    2.4797 H   0  0  0  0  0  0  0  0  0  0  0  0
    0.5890   -0.6835   -1.6075 H   0  0  0  0  0  0  0  0  0  0  0  0
   -0.2584   -0.0637   -3.0090 H   0  0  0  0  0  0  0  0  0  0  0  0
   -8.2855   -0.9129    0.6186 H   0  0  0  0  0  0  0  0  0  0  0  0
   -7.1884    0.5123    2.3276 H   0  0  0  0  0  0  0  0  0  0  0  0
   -0.4415   -1.5202    0.3347 H   0  0  0  0  0  0  0  0  0  0  0  0
   -0.8325   -2.1952   -1.2494 H   0  0  0  0  0  0  0  0  0  0  0  0
   -1.8850   -2.4810    0.0947 H   0  0  0  0  0  0  0  0  0  0  0  0
   -3.6576   -2.8682    0.8967 H   0  0  0  0  0  0  0  0  0  0  0  0
   -4.9072   -2.4539    2.0301 H   0  0  0  0  0  0  0  0  0  0  0  0
   -3.2850   -1.9502    2.3571 H   0  0  0  0  0  0  0  0  0  0  0  0
   -0.3116    1.5486    2.2539 H   0  0  0  0  0  0  0  0  0  0  0  0
   -2.5971    2.2872   -1.3758 H   0  0  0  0  0  0  0  0  0  0  0  0
   -1.0494    2.8069   -2.0090 H   0  0  0  0  0  0  0  0  0  0  0  0
   -1.9783    1.6292   -2.9004 H   0  0  0  0  0  0  0  0  0  0  0  0
    0.9732    2.0249   -2.8672 H   0  0  0  0  0  0  0  0  0  0  0  0
    2.0905    0.6786   -2.8218 H   0  0  0  0  0  0  0  0  0  0  0  0
   -6.1078   -3.5265   -1.4190 H   0  0  0  0  0  0  0  0  0  0  0  0
   -5.8687   -3.5939    0.3266 H   0  0  0  0  0  0  0  0  0  0  0  0
   -7.4978   -3.5451   -0.3415 H   0  0  0  0  0  0  0  0  0  0  0  0
   -7.3958   -0.0616   -1.7096 H   0  0  0  0  0  0  0  0  0  0  0  0
   -6.8894   -1.5085   -2.5856 H   0  0  0  0  0  0  0  0  0  0  0  0
   -8.3447   -1.5469   -1.5965 H   0  0  0  0  0  0  0  0  0  0  0  0
    3.9693    2.2184   -1.5003 H   0  0  0  0  0  0  0  0  0  0  0  0
    2.7690    3.2993   -2.1400 H   0  0  0  0  0  0  0  0  0  0  0  0
    2.2232    4.9963    1.1928 H   0  0  0  0  0  0  0  0  0  0  0  0
    3.6210    3.1328    0.7834 H   0  0  0  0  0  0  0  0  0  0  0  0
    4.1070    4.3672   -0.3672 H   0  0  0  0  0  0  0  0  0  0  0  0
   -7.7706   -1.6526    2.6579 H   0  0  0  0  0  0  0  0  0  0  0  0
   -6.5713    2.1079    0.8727 H   0  0  0  0  0  0  0  0  0  0  0  0
   -0.5003    5.2645    0.8260 H   0  0  0  0  0  0  0  0  0  0  0  0
   -1.2805    3.7310    1.0870 H   0  0  0  0  0  0  0  0  0  0  0  0
   -0.0702    4.3066    2.2523 H   0  0  0  0  0  0  0  0  0  0  0  0
    2.6661    6.1497   -1.0154 H   0  0  0  0  0  0  0  0  0  0  0  0
    1.4175    5.1394   -1.7664 H   0  0  0  0  0  0  0  0  0  0  0  0
    0.9935    6.2758   -0.4837 H   0  0  0  0  0  0  0  0  0  0  0  0
    3.4793   -1.6643    0.3223 H   0  0  0  0  0  0  0  0  0  0  0  0
    5.5145   -1.1851   -1.9243 H   0  0  0  0  0  0  0  0  0  0  0  0
    5.1945   -3.7660   -0.2976 H   0  0  0  0  0  0  0  0  0  0  0  0
    5.1241   -2.1763    1.9558 H   0  0  0  0  0  0  0  0  0  0  0  0
    7.4813   -1.7514    0.0083 H   0  0  0  0  0  0  0  0  0  0  0  0
    3.3855   -3.0314   -1.5506 H   0  0  0  0  0  0  0  0  0  0  0  0
    7.2868   -1.6131    3.0783 H   0  0  0  0  0  0  0  0  0  0  0  0
    7.4415   -0.1812    2.0223 H   0  0  0  0  0  0  0  0  0  0  0  0
    7.1961   -2.7532   -2.0360 H   0  0  0  0  0  0  0  0  0  0  0  0
    6.6186   -3.9884    1.5423 H   0  0  0  0  0  0  0  0  0  0  0  0
    6.4827    0.2932    4.0155 H   0  0  0  0  0  0  0  0  0  0  0  0
  1 22  1  0  0  0  0
  1 83  1  0  0  0  0
  2 23  1  0  0  0  0
  2 84  1  0  0  0  0
  3 37  1  0  0  0  0
  3 40  1  0  0  0  0
  4 37  2  0  0  0  0
  5 40  1  0  0  0  0
  5 43  1  0  0  0  0
  6 41  1  0  0  0  0
  6 96  1  0  0  0  0
  7 42  1  0  0  0  0
  7 99  1  0  0  0  0
  8 44  1  0  0  0  0
  8100  1  0  0  0  0
  9 45  1  0  0  0  0
  9101  1  0  0  0  0
 10 12  1  0  0  0  0
 10 14  1  0  0  0  0
 10 15  1  0  0  0  0
 10 24  1  0  0  0  0
 11 12  1  0  0  0  0
 11 13  1  0  0  0  0
 11 18  1  0  0  0  0
 11 25  1  0  0  0  0
 12 19  1  0  0  0  0
 12 46  1  0  0  0  0
 13 16  1  0  0  0  0
 13 17  1  0  0  0  0
 13 47  1  0  0  0  0
 14 20  1  0  0  0  0
 14 21  1  0  0  0  0
 14 28  1  0  0  0  0
 15 17  1  0  0  0  0
 15 48  1  0  0  0  0
 15 49  1  0  0  0  0
 16 22  1  0  0  0  0
 16 31  1  0  0  0  0
 16 32  1  0  0  0  0
 17 50  1  0  0  0  0
 17 51  1  0  0  0  0
 18 23  1  0  0  0  0
 18 52  1  0  0  0  0
 18 53  1  0  0  0  0
 19 26  1  0  0  0  0
 19 54  1  0  0  0  0
 19 55  1  0  0  0  0
 20 26  2  0  0  0  0
 20 30  1  0  0  0  0
 21 29  1  0  0  0  0
 21 56  1  0  0  0  0
 21 57  1  0  0  0  0
 22 23  1  0  0  0  0
 22 58  1  0  0  0  0
 23 59  1  0  0  0  0
 24 60  1  0  0  0  0
 24 61  1  0  0  0  0
 24 62  1  0  0  0  0
 25 63  1  0  0  0  0
 25 64  1  0  0  0  0
 25 65  1  0  0  0  0
 26 66  1  0  0  0  0
 27 29  1  0  0  0  0
 27 30  1  0  0  0  0
 27 33  1  0  0  0  0
 27 37  1  0  0  0  0
 28 67  1  0  0  0  0
 28 68  1  0  0  0  0
 28 69  1  0  0  0  0
 29 70  1  0  0  0  0
 29 71  1  0  0  0  0
 30 34  2  0  0  0  0
 31 72  1  0  0  0  0
 31 73  1  0  0  0  0
 31 74  1  0  0  0  0
 32 75  1  0  0  0  0
 32 76  1  0  0  0  0
 32 77  1  0  0  0  0
 33 36  1  0  0  0  0
 33 78  1  0  0  0  0
 33 79  1  0  0  0  0
 34 35  1  0  0  0  0
 34 38  1  0  0  0  0
 35 36  1  0  0  0  0
 35 39  1  0  0  0  0
 35 80  1  0  0  0  0
 36 81  1  0  0  0  0
 36 82  1  0  0  0  0
 38 85  1  0  0  0  0
 38 86  1  0  0  0  0
 38 87  1  0  0  0  0
 39 88  1  0  0  0  0
 39 89  1  0  0  0  0
 39 90  1  0  0  0  0
 40 41  1  0  0  0  0
 40 91  1  0  0  0  0
 41 42  1  0  0  0  0
 41 92  1  0  0  0  0
 42 44  1  0  0  0  0
 42 93  1  0  0  0  0
 43 44  1  0  0  0  0
 43 45  1  0  0  0  0
 43 94  1  0  0  0  0
 44 95  1  0  0  0  0
 45 97  1  0  0  0  0
 45 98  1  0  0  0  0
M  END
> <PUBCHEM_COMPOUND_CID>
44557350

> <PUBCHEM_CONFORMER_RMSD>
1

> <PUBCHEM_CONFORMER_DIVERSEORDER>
1
31
22
25
34
18
14
15
36
28
21
30
32
23
24
38
6
27
16
19
7
13
20
3
10
17
33
12
4
37
9
26
35
5
2
29
8
11

> <PUBCHEM_MMFF94_PARTIAL_CHARGES>
34
1 -0.68
100 0.4
101 0.4
14 0.14
19 0.14
2 -0.68
20 -0.14
22 0.28
23 0.28
26 -0.29
27 0.2
3 -0.43
30 -0.14
34 -0.28
35 0.14
37 0.66
38 0.14
4 -0.57
40 0.56
41 0.28
42 0.28
43 0.28
44 0.28
45 0.28
5 -0.56
6 -0.68
66 0.15
7 -0.68
8 -0.68
83 0.4
84 0.4
9 -0.68
96 0.4
99 0.4

> <PUBCHEM_EFFECTIVE_ROTOR_COUNT>
7.6

> <PUBCHEM_PHARMACOPHORE_FEATURES>
21
1 1 acceptor
1 1 donor
1 2 acceptor
1 2 donor
1 4 acceptor
1 5 acceptor
1 6 acceptor
1 6 donor
1 7 acceptor
1 7 donor
1 8 acceptor
1 8 donor
1 9 acceptor
1 9 donor
3 16 31 32 hydrophobe
6 10 11 12 13 15 17 rings
6 10 12 14 19 20 26 rings
6 11 13 16 18 22 23 rings
6 14 20 21 27 29 30 rings
6 27 30 33 34 35 36 rings
6 5 40 41 42 43 44 rings

> <PUBCHEM_HEAVY_ATOM_COUNT>
45

> <PUBCHEM_ATOM_DEF_STEREO_COUNT>
14

> <PUBCHEM_ATOM_UDEF_STEREO_COUNT>
0

> <PUBCHEM_BOND_DEF_STEREO_COUNT>
0

> <PUBCHEM_BOND_UDEF_STEREO_COUNT>
0

> <PUBCHEM_ISOTOPIC_ATOM_COUNT>
0

> <PUBCHEM_COMPONENT_COUNT>
1

> <PUBCHEM_CACTVS_TAUTO_COUNT>
1

> <PUBCHEM_CONFORMER_ID>
02A7E42600000001

> <PUBCHEM_MMFF94_ENERGY>
179.4034

> <PUBCHEM_FEATURE_SELFOVERLAP>
106.663

> <PUBCHEM_SHAPE_FINGERPRINT>
10369192 42 10591754411487880475
11062273 23 17906446628802667104
11135926 11 18194960971101545388
11136131 41 18125722541429987017
11331351 85 18272369732937757768
11456790 92 18339096917159986009
12061779 8 13684857668503187818
12107183 9 18200607916887437905
12218070 45 17130400545971905390
12422481 6 17346326942305282092
12633046 712 17971213619002532193
131258 43 18269011842782318372
1361 4 18049448329706753531
13636023 51 17604718909626108262
13673619 4 17894911814980120276
13782708 43 18114183077286817167
13947947 73 18333166176861366765
14068700 675 18337394850952160984
14664723 55 11023535969955031218
15021287 119 18413392034144524673
15183329 4 14129059184290856682
15510800 12 18260548901092865730
16993427 108 18188199893697815754
16994733 274 10592047934312515295
18393751 57 13614519654024442503
19301679 30 18340771442792529480
19304144 158 11311781610024529555
19319366 153 17839184361160324436
21033648 29 13758086199004823143
21344244 78 18202562903963993920
21639891 77 18189326883941010116
21814621 53 18114747144332376521
21927370 108 18336256844207880688
2260408 40 17846492652157137932
22889206 1 17700684336223459688
23559900 14 17386571391965618797
23569943 247 18259983752379933851
249057 25 17775003548891647439
32027 91 18261958547971401219
3383291 50 18407758136221981299
4149490 64 18339366392172832651
437815 12 18335423452199165431
474113 269 18271802411546139391
50009960 94 18191007105243884242
57816373 69 18336550498862822135
6086070 43 18337375077503128485
613672 6 18337657634595150750
6697151 62 18337092532530785485
70251023 43 18408044013460347052
86090 222 17531243993565943162
9896288 288 17910679761227094880
9962374 69 18338789147623693295

> <PUBCHEM_SHAPE_MULTIPOLES>
873.26
19.87
5.2
2.3
7.04
5.72
-0.45
-23.4
-6.6
-8.17
0.59
-0.99
-0.62
-0.65

> <PUBCHEM_SHAPE_SELFOVERLAP>
1863.742

> <PUBCHEM_SHAPE_VOLUME>
476

> <PUBCHEM_COORDINATE_TYPE>
2
5
10

$$$$
