44557352
  -OEChem-08282000583D

102107  0     1  0  0  0  0  0999 V2000
    8.3437   -1.0363   -1.1050 O   0  0  0  0  0  0  0  0  0  0  0  0
    6.7786    1.3196   -0.7187 O   0  0  0  0  0  0  0  0  0  0  0  0
    8.4571   -1.6108    1.2010 O   0  0  0  0  0  0  0  0  0  0  0  0
   -3.7315   -0.0164    0.8535 O   0  0  0  0  0  0  0  0  0  0  0  0
   -2.3927    0.3045   -1.0016 O   0  0  0  0  0  0  0  0  0  0  0  0
   -5.3758   -0.5517   -0.7130 O   0  0  0  0  0  0  0  0  0  0  0  0
   -4.0643   -2.5636    2.0405 O   0  0  0  0  0  0  0  0  0  0  0  0
   -6.7793   -3.6273    1.6189 O   0  0  0  0  0  0  0  0  0  0  0  0
   -7.4909   -3.5049   -1.1801 O   0  0  0  0  0  0  0  0  0  0  0  0
   -6.1795   -0.0856   -3.2998 O   0  0  0  0  0  0  0  0  0  0  0  0
    1.8509   -0.3815    0.6454 C   0  0  2  0  0  0  0  0  0  0  0  0
    4.0507   -0.6074   -0.9431 C   0  0  2  0  0  0  0  0  0  0  0  0
    2.7022    0.1586   -0.5662 C   0  0  1  0  0  0  0  0  0  0  0  0
    4.8558   -0.8774    0.3743 C   0  0  2  0  0  0  0  0  0  0  0  0
    0.7829    0.7800    1.0830 C   0  0  1  0  0  0  0  0  0  0  0  0
    2.7924   -0.7472    1.8233 C   0  0  0  0  0  0  0  0  0  0  0  0
    6.2959   -1.4967    0.1870 C   0  0  1  0  0  0  0  0  0  0  0  0
    3.9929   -1.6039    1.4251 C   0  0  0  0  0  0  0  0  0  0  0  0
    4.8951    0.3372   -1.8795 C   0  0  0  0  0  0  0  0  0  0  0  0
    1.7782    0.4372   -1.7722 C   0  0  0  0  0  0  0  0  0  0  0  0
    0.1267    1.4395   -0.1465 C   0  0  0  0  0  0  0  0  0  0  0  0
    6.9167   -1.0478   -1.1737 C   0  0  1  0  0  0  0  0  0  0  0  0
   -0.3322    0.1773    1.9969 C   0  0  0  0  0  0  0  0  0  0  0  0
    6.4151    0.3104   -1.6616 C   0  0  2  0  0  0  0  0  0  0  0  0
    1.0851   -1.6767    0.2421 C   0  0  0  0  0  0  0  0  0  0  0  0
    3.7924   -1.9122   -1.7383 C   0  0  0  0  0  0  0  0  0  0  0  0
    0.5561    1.2215   -1.4042 C   0  0  0  0  0  0  0  0  0  0  0  0
   -2.1195    1.6937    0.9641 C   0  0  1  0  0  0  0  0  0  0  0  0
    1.4754    1.9263    1.8818 C   0  0  0  0  0  0  0  0  0  0  0  0
   -1.0268    2.3277    0.1099 C   0  0  0  0  0  0  0  0  0  0  0  0
   -1.5143    1.1151    2.2607 C   0  0  0  0  0  0  0  0  0  0  0  0
    7.1833   -1.0405    1.3802 C   0  0  0  0  0  0  0  0  0  0  0  0
    6.3079   -3.0436    0.2304 C   0  0  0  0  0  0  0  0  0  0  0  0
   -3.2730    2.6445    1.3528 C   0  0  0  0  0  0  0  0  0  0  0  0
   -1.0956    3.6144   -0.3229 C   0  0  0  0  0  0  0  0  0  0  0  0
   -2.3249    4.4855   -0.0826 C   0  0  1  0  0  0  0  0  0  0  0  0
   -3.5692    3.6526    0.2509 C   0  0  0  0  0  0  0  0  0  0  0  0
   -2.7429    0.5890    0.1358 C   0  0  0  0  0  0  0  0  0  0  0  0
    0.0061    4.3244   -1.0800 C   0  0  0  0  0  0  0  0  0  0  0  0
   -2.0615    5.5303    1.0116 C   0  0  0  0  0  0  0  0  0  0  0  0
   -4.4072   -1.0831    0.1881 C   0  0  2  0  0  0  0  0  0  0  0  0
   -5.0826   -1.9486    1.2518 C   0  0  1  0  0  0  0  0  0  0  0  0
   -5.9552   -3.0310    0.6160 C   0  0  2  0  0  0  0  0  0  0  0  0
   -6.0726   -1.5708   -1.4319 C   0  0  1  0  0  0  0  0  0  0  0  0
   -6.8692   -2.4440   -0.4595 C   0  0  1  0  0  0  0  0  0  0  0  0
   -6.9806   -0.8803   -2.4447 C   0  0  0  0  0  0  0  0  0  0  0  0
    3.0596    1.1450   -0.2371 H   0  0  0  0  0  0  0  0  0  0  0  0
    5.0316    0.1239    0.7998 H   0  0  0  0  0  0  0  0  0  0  0  0
    2.2324   -1.2608    2.6141 H   0  0  0  0  0  0  0  0  0  0  0  0
    3.2063    0.1553    2.2831 H   0  0  0  0  0  0  0  0  0  0  0  0
    3.6629   -2.5854    1.0728 H   0  0  0  0  0  0  0  0  0  0  0  0
    4.5790   -1.7871    2.3325 H   0  0  0  0  0  0  0  0  0  0  0  0
    4.5604    1.3764   -1.7703 H   0  0  0  0  0  0  0  0  0  0  0  0
    4.6910    0.0722   -2.9256 H   0  0  0  0  0  0  0  0  0  0  0  0
    2.3257    1.0070   -2.5313 H   0  0  0  0  0  0  0  0  0  0  0  0
    1.4409   -0.4859   -2.2522 H   0  0  0  0  0  0  0  0  0  0  0  0
    6.6795   -1.7880   -1.9446 H   0  0  0  0  0  0  0  0  0  0  0  0
    0.0947   -0.1362    2.9573 H   0  0  0  0  0  0  0  0  0  0  0  0
   -0.7662   -0.7211    1.5488 H   0  0  0  0  0  0  0  0  0  0  0  0
    6.9226    0.5793   -2.5956 H   0  0  0  0  0  0  0  0  0  0  0  0
    0.2497   -1.4747   -0.4356 H   0  0  0  0  0  0  0  0  0  0  0  0
    0.6790   -2.1902    1.1211 H   0  0  0  0  0  0  0  0  0  0  0  0
    1.7150   -2.4139   -0.2468 H   0  0  0  0  0  0  0  0  0  0  0  0
    3.4686   -2.7419   -1.1109 H   0  0  0  0  0  0  0  0  0  0  0  0
    4.6876   -2.2643   -2.2558 H   0  0  0  0  0  0  0  0  0  0  0  0
    3.0495   -1.7781   -2.5279 H   0  0  0  0  0  0  0  0  0  0  0  0
    0.0240    1.6645   -2.2438 H   0  0  0  0  0  0  0  0  0  0  0  0
    1.7812    1.5936    2.8794 H   0  0  0  0  0  0  0  0  0  0  0  0
    0.8131    2.7834    2.0479 H   0  0  0  0  0  0  0  0  0  0  0  0
    2.3584    2.3176    1.3682 H   0  0  0  0  0  0  0  0  0  0  0  0
   -2.2706    0.5669    2.8374 H   0  0  0  0  0  0  0  0  0  0  0  0
   -1.1779    1.9318    2.9128 H   0  0  0  0  0  0  0  0  0  0  0  0
    7.2867    0.0476    1.4216 H   0  0  0  0  0  0  0  0  0  0  0  0
    6.7836   -1.3825    2.3398 H   0  0  0  0  0  0  0  0  0  0  0  0
    7.2964   -3.4510   -0.0121 H   0  0  0  0  0  0  0  0  0  0  0  0
    5.6108   -3.4776   -0.4902 H   0  0  0  0  0  0  0  0  0  0  0  0
    6.0349   -3.4267    1.2198 H   0  0  0  0  0  0  0  0  0  0  0  0
   -3.0091    3.1969    2.2642 H   0  0  0  0  0  0  0  0  0  0  0  0
   -4.2008    2.1183    1.6050 H   0  0  0  0  0  0  0  0  0  0  0  0
   -2.5522    5.0260   -1.0114 H   0  0  0  0  0  0  0  0  0  0  0  0
    8.6797   -0.7889   -1.9833 H   0  0  0  0  0  0  0  0  0  0  0  0
   -3.9091    3.1227   -0.6485 H   0  0  0  0  0  0  0  0  0  0  0  0
   -4.3965    4.3046    0.5554 H   0  0  0  0  0  0  0  0  0  0  0  0
    6.5120    2.1786   -1.0880 H   0  0  0  0  0  0  0  0  0  0  0  0
    9.0103   -1.3250    1.9477 H   0  0  0  0  0  0  0  0  0  0  0  0
    0.1728    5.3293   -0.6813 H   0  0  0  0  0  0  0  0  0  0  0  0
    0.9739    3.8211   -1.0157 H   0  0  0  0  0  0  0  0  0  0  0  0
   -0.2677    4.4194   -2.1357 H   0  0  0  0  0  0  0  0  0  0  0  0
   -1.6951    5.0724    1.9365 H   0  0  0  0  0  0  0  0  0  0  0  0
   -1.3151    6.2639    0.6905 H   0  0  0  0  0  0  0  0  0  0  0  0
   -2.9751    6.0872    1.2468 H   0  0  0  0  0  0  0  0  0  0  0  0
   -3.6736   -1.6859   -0.3658 H   0  0  0  0  0  0  0  0  0  0  0  0
   -5.6765   -1.3263    1.9317 H   0  0  0  0  0  0  0  0  0  0  0  0
   -5.3393   -3.8402    0.2064 H   0  0  0  0  0  0  0  0  0  0  0  0
   -5.3379   -2.1690   -1.9882 H   0  0  0  0  0  0  0  0  0  0  0  0
   -7.6671   -1.8588    0.0140 H   0  0  0  0  0  0  0  0  0  0  0  0
   -3.5217   -3.1180    1.4542 H   0  0  0  0  0  0  0  0  0  0  0  0
   -7.5302   -1.6058   -3.0518 H   0  0  0  0  0  0  0  0  0  0  0  0
   -7.6916   -0.2162   -1.9418 H   0  0  0  0  0  0  0  0  0  0  0  0
   -7.3272   -2.9284    2.0151 H   0  0  0  0  0  0  0  0  0  0  0  0
   -6.7920   -4.0223   -1.6155 H   0  0  0  0  0  0  0  0  0  0  0  0
   -6.7773    0.3476   -3.9326 H   0  0  0  0  0  0  0  0  0  0  0  0
  1 22  1  0  0  0  0
  1 81  1  0  0  0  0
  2 24  1  0  0  0  0
  2 84  1  0  0  0  0
  3 32  1  0  0  0  0
  3 85  1  0  0  0  0
  4 38  1  0  0  0  0
  4 41  1  0  0  0  0
  5 38  2  0  0  0  0
  6 41  1  0  0  0  0
  6 44  1  0  0  0  0
  7 42  1  0  0  0  0
  7 97  1  0  0  0  0
  8 43  1  0  0  0  0
  8100  1  0  0  0  0
  9 45  1  0  0  0  0
  9101  1  0  0  0  0
 10 46  1  0  0  0  0
 10102  1  0  0  0  0
 11 13  1  0  0  0  0
 11 15  1  0  0  0  0
 11 16  1  0  0  0  0
 11 25  1  0  0  0  0
 12 13  1  0  0  0  0
 12 14  1  0  0  0  0
 12 19  1  0  0  0  0
 12 26  1  0  0  0  0
 13 20  1  0  0  0  0
 13 47  1  0  0  0  0
 14 17  1  0  0  0  0
 14 18  1  0  0  0  0
 14 48  1  0  0  0  0
 15 21  1  0  0  0  0
 15 23  1  0  0  0  0
 15 29  1  0  0  0  0
 16 18  1  0  0  0  0
 16 49  1  0  0  0  0
 16 50  1  0  0  0  0
 17 22  1  0  0  0  0
 17 32  1  0  0  0  0
 17 33  1  0  0  0  0
 18 51  1  0  0  0  0
 18 52  1  0  0  0  0
 19 24  1  0  0  0  0
 19 53  1  0  0  0  0
 19 54  1  0  0  0  0
 20 27  1  0  0  0  0
 20 55  1  0  0  0  0
 20 56  1  0  0  0  0
 21 27  2  0  0  0  0
 21 30  1  0  0  0  0
 22 24  1  0  0  0  0
 22 57  1  0  0  0  0
 23 31  1  0  0  0  0
 23 58  1  0  0  0  0
 23 59  1  0  0  0  0
 24 60  1  0  0  0  0
 25 61  1  0  0  0  0
 25 62  1  0  0  0  0
 25 63  1  0  0  0  0
 26 64  1  0  0  0  0
 26 65  1  0  0  0  0
 26 66  1  0  0  0  0
 27 67  1  0  0  0  0
 28 30  1  0  0  0  0
 28 31  1  0  0  0  0
 28 34  1  0  0  0  0
 28 38  1  0  0  0  0
 29 68  1  0  0  0  0
 29 69  1  0  0  0  0
 29 70  1  0  0  0  0
 30 35  2  0  0  0  0
 31 71  1  0  0  0  0
 31 72  1  0  0  0  0
 32 73  1  0  0  0  0
 32 74  1  0  0  0  0
 33 75  1  0  0  0  0
 33 76  1  0  0  0  0
 33 77  1  0  0  0  0
 34 37  1  0  0  0  0
 34 78  1  0  0  0  0
 34 79  1  0  0  0  0
 35 36  1  0  0  0  0
 35 39  1  0  0  0  0
 36 37  1  0  0  0  0
 36 40  1  0  0  0  0
 36 80  1  0  0  0  0
 37 82  1  0  0  0  0
 37 83  1  0  0  0  0
 39 86  1  0  0  0  0
 39 87  1  0  0  0  0
 39 88  1  0  0  0  0
 40 89  1  0  0  0  0
 40 90  1  0  0  0  0
 40 91  1  0  0  0  0
 41 42  1  0  0  0  0
 41 92  1  0  0  0  0
 42 43  1  0  0  0  0
 42 93  1  0  0  0  0
 43 45  1  0  0  0  0
 43 94  1  0  0  0  0
 44 45  1  0  0  0  0
 44 46  1  0  0  0  0
 44 95  1  0  0  0  0
 45 96  1  0  0  0  0
 46 98  1  0  0  0  0
 46 99  1  0  0  0  0
M  END
> <PUBCHEM_COMPOUND_CID>
44557352

> <PUBCHEM_CONFORMER_RMSD>
1.2

> <PUBCHEM_CONFORMER_DIVERSEORDER>
1
11
8
13
18
9
19
21
12
4
16
3
7
5
17
6
20
15
14
2
10

> <PUBCHEM_MMFF94_PARTIAL_CHARGES>
37
1 -0.68
10 -0.68
100 0.4
101 0.4
102 0.4
15 0.14
2 -0.68
20 0.14
21 -0.14
22 0.28
24 0.28
27 -0.29
28 0.2
3 -0.68
30 -0.14
32 0.28
35 -0.28
36 0.14
38 0.66
39 0.14
4 -0.43
41 0.56
42 0.28
43 0.28
44 0.28
45 0.28
46 0.28
5 -0.57
6 -0.56
67 0.15
7 -0.68
8 -0.68
81 0.4
84 0.4
85 0.4
9 -0.68
97 0.4

> <PUBCHEM_EFFECTIVE_ROTOR_COUNT>
8.6

> <PUBCHEM_PHARMACOPHORE_FEATURES>
22
1 1 acceptor
1 1 donor
1 10 acceptor
1 10 donor
1 2 acceptor
1 2 donor
1 3 acceptor
1 3 donor
1 5 acceptor
1 6 acceptor
1 7 acceptor
1 7 donor
1 8 acceptor
1 8 donor
1 9 acceptor
1 9 donor
6 11 12 13 14 16 18 rings
6 11 13 15 20 21 27 rings
6 12 14 17 19 22 24 rings
6 15 21 23 28 30 31 rings
6 28 30 34 35 36 37 rings
6 6 41 42 43 44 45 rings

> <PUBCHEM_HEAVY_ATOM_COUNT>
46

> <PUBCHEM_ATOM_DEF_STEREO_COUNT>
15

> <PUBCHEM_ATOM_UDEF_STEREO_COUNT>
0

> <PUBCHEM_BOND_DEF_STEREO_COUNT>
0

> <PUBCHEM_BOND_UDEF_STEREO_COUNT>
0

> <PUBCHEM_ISOTOPIC_ATOM_COUNT>
0

> <PUBCHEM_COMPONENT_COUNT>
1

> <PUBCHEM_CACTVS_TAUTO_COUNT>
1

> <PUBCHEM_CONFORMER_ID>
02A7E42800000001

> <PUBCHEM_MMFF94_ENERGY>
184.683

> <PUBCHEM_FEATURE_SELFOVERLAP>
111.819

> <PUBCHEM_SHAPE_FINGERPRINT>
10190206 1 18187654591685710234
10985338 8 14348003857130768287
11115154 58 18333733537952267041
11607047 403 18052816133659068848
11672396 43 18058738984313670446
1200032 147 13045928093956990725
12106331 60 18412546496148430998
131258 43 18339648952610373648
13636023 20 16878212156044691557
13673619 4 17846216678432205683
13690498 29 18272088279646574397
13782708 43 18131072598017780938
13811026 1 18272082795358128208
14068700 675 18410574007096130477
14856354 85 18339648845420268373
15064986 96 10951512378634679949
15131766 46 14495603435529362069
15183329 4 16877654673869909547
15361156 5 18273216383351824233
15392192 29 18411990165757289051
15876981 60 18262531311872859909
16992727 255 17312816061696000735
17686467 74 18412539938503405920
19303781 99 18128528457324533007
21120745 212 18410580556969275433
21223535 225 14490460964012456887
21639891 77 18131351869312688353
21814621 53 11242267264128414852
23559900 14 18193828461671933553
249057 25 17967541138776133292
3504750 166 17899411992214868234
3633792 109 16877938309420476226
4144715 1 17983867683773790120
4339292 15 18131061607254493222
49967989 163 18334868207633864559
5028188 123 18264783061185817102
5080951 261 18131068183150096825
508180 173 15864068784719761477
5969126 39 18412263921897163765
6086070 43 17822563920557482860
6673363 416 18341910610450416828
6691757 9 17773891814014444073
6698420 124 11675151502595207573
6700243 42 17842593714789577692
9896288 288 18270122284046722971

> <PUBCHEM_SHAPE_MULTIPOLES>
887.97
21.09
5.13
2.26
11.93
5.5
-0.48
-23.96
-6.04
-9.34
0.83
-1.17
-0.46
-1.15

> <PUBCHEM_SHAPE_SELFOVERLAP>
1897.564

> <PUBCHEM_SHAPE_VOLUME>
482

> <PUBCHEM_COORDINATE_TYPE>
2
5
10

$$$$
