44557351
  -OEChem-08282000573D

101106  0     1  0  0  0  0  0999 V2000
   -8.5213    1.2530   -0.9527 O   0  0  0  0  0  0  0  0  0  0  0  0
   -6.9976   -1.1379   -0.6238 O   0  0  0  0  0  0  0  0  0  0  0  0
    3.5541   -0.0307    0.8366 O   0  0  0  0  0  0  0  0  0  0  0  0
    2.1864   -0.2943   -1.0063 O   0  0  0  0  0  0  0  0  0  0  0  0
    5.1885    0.5007   -0.7414 O   0  0  0  0  0  0  0  0  0  0  0  0
    3.9500    2.4889    2.0627 O   0  0  0  0  0  0  0  0  0  0  0  0
    6.6792    3.5086    1.6244 O   0  0  0  0  0  0  0  0  0  0  0  0
    7.3532    3.4214   -1.1852 O   0  0  0  0  0  0  0  0  0  0  0  0
    5.9509    0.0643   -3.3459 O   0  0  0  0  0  0  0  0  0  0  0  0
   -2.0215    0.4442    0.7046 C   0  0  2  0  0  0  0  0  0  0  0  0
   -4.2359    0.7391   -0.8522 C   0  0  2  0  0  0  0  0  0  0  0  0
   -2.8981   -0.0590   -0.5048 C   0  0  1  0  0  0  0  0  0  0  0  0
   -5.0193    1.0031    0.4794 C   0  0  2  0  0  0  0  0  0  0  0  0
   -0.9712   -0.7450    1.1097 C   0  0  1  0  0  0  0  0  0  0  0  0
   -2.9411    0.8087    1.9001 C   0  0  0  0  0  0  0  0  0  0  0  0
   -6.4491    1.6534    0.3204 C   0  0  0  0  0  0  0  0  0  0  0  0
   -4.1293    1.6951    1.5311 C   0  0  0  0  0  0  0  0  0  0  0  0
   -5.1100   -0.1737   -1.7927 C   0  0  0  0  0  0  0  0  0  0  0  0
   -1.9949   -0.3358   -1.7268 C   0  0  0  0  0  0  0  0  0  0  0  0
   -0.3431   -1.3962   -0.1388 C   0  0  0  0  0  0  0  0  0  0  0  0
    0.1663   -0.1799    2.0197 C   0  0  0  0  0  0  0  0  0  0  0  0
   -7.0953    1.2386   -1.0394 C   0  0  1  0  0  0  0  0  0  0  0  0
   -6.6263   -0.1207   -1.5553 C   0  0  2  0  0  0  0  0  0  0  0  0
   -1.2354    1.7309    0.3126 C   0  0  0  0  0  0  0  0  0  0  0  0
   -3.9619    2.0515   -1.6293 C   0  0  0  0  0  0  0  0  0  0  0  0
   -0.7838   -1.1492   -1.3873 C   0  0  0  0  0  0  0  0  0  0  0  0
    1.9113   -1.7118    0.9387 C   0  0  2  0  0  0  0  0  0  0  0  0
   -1.6766   -1.8912    1.8973 C   0  0  0  0  0  0  0  0  0  0  0  0
    1.3332   -1.1447    2.2526 C   0  0  0  0  0  0  0  0  0  0  0  0
    0.7963   -2.3104    0.0880 C   0  0  0  0  0  0  0  0  0  0  0  0
   -6.4301    3.1992    0.3885 C   0  0  0  0  0  0  0  0  0  0  0  0
   -7.3303    1.1953    1.5173 C   0  0  0  0  0  0  0  0  0  0  0  0
    3.0513   -2.6908    1.2962 C   0  0  0  0  0  0  0  0  0  0  0  0
    0.8354   -3.5902   -0.3684 C   0  0  0  0  0  0  0  0  0  0  0  0
    2.0508   -4.4883   -0.1591 C   0  0  1  0  0  0  0  0  0  0  0  0
    3.3147   -3.6850    0.1734 C   0  0  0  0  0  0  0  0  0  0  0  0
    2.5452   -0.6049    0.1214 C   0  0  0  0  0  0  0  0  0  0  0  0
   -0.2890   -4.2650   -1.1243 C   0  0  0  0  0  0  0  0  0  0  0  0
    1.7815   -5.5475    0.9196 C   0  0  0  0  0  0  0  0  0  0  0  0
    4.2415    1.0345    0.1810 C   0  0  2  0  0  0  0  0  0  0  0  0
    4.9465    1.8686    1.2505 C   0  0  1  0  0  0  0  0  0  0  0  0
    5.8313    2.9453    0.6222 C   0  0  2  0  0  0  0  0  0  0  0  0
    5.8955    1.5188   -1.4517 C   0  0  1  0  0  0  0  0  0  0  0  0
    6.7206    2.3599   -0.4750 C   0  0  1  0  0  0  0  0  0  0  0  0
    6.7775    0.8290   -2.4876 C   0  0  0  0  0  0  0  0  0  0  0  0
   -3.2707   -1.0436   -0.1872 H   0  0  0  0  0  0  0  0  0  0  0  0
   -5.2096   -0.0015    0.8909 H   0  0  0  0  0  0  0  0  0  0  0  0
   -2.3613    1.2982    2.6920 H   0  0  0  0  0  0  0  0  0  0  0  0
   -3.3669   -0.0931    2.3504 H   0  0  0  0  0  0  0  0  0  0  0  0
   -4.6990    1.8755    2.4493 H   0  0  0  0  0  0  0  0  0  0  0  0
   -3.7835    2.6751    1.1900 H   0  0  0  0  0  0  0  0  0  0  0  0
   -4.9135    0.1041   -2.8369 H   0  0  0  0  0  0  0  0  0  0  0  0
   -4.7945   -1.2208   -1.7043 H   0  0  0  0  0  0  0  0  0  0  0  0
   -1.6455    0.5882   -2.1962 H   0  0  0  0  0  0  0  0  0  0  0  0
   -2.5628   -0.8823   -2.4879 H   0  0  0  0  0  0  0  0  0  0  0  0
    0.6120    0.7179    1.5818 H   0  0  0  0  0  0  0  0  0  0  0  0
   -0.2428    0.1249    2.9907 H   0  0  0  0  0  0  0  0  0  0  0  0
   -6.8536    1.9864   -1.8017 H   0  0  0  0  0  0  0  0  0  0  0  0
   -7.1505   -0.3648   -2.4869 H   0  0  0  0  0  0  0  0  0  0  0  0
   -0.4122    1.5237   -0.3781 H   0  0  0  0  0  0  0  0  0  0  0  0
   -0.8093    2.2224    1.1947 H   0  0  0  0  0  0  0  0  0  0  0  0
   -1.8571    2.4873   -0.1573 H   0  0  0  0  0  0  0  0  0  0  0  0
   -3.6216    2.8662   -0.9910 H   0  0  0  0  0  0  0  0  0  0  0  0
   -4.8550    2.4254   -2.1352 H   0  0  0  0  0  0  0  0  0  0  0  0
   -3.2265    1.9185   -2.4259 H   0  0  0  0  0  0  0  0  0  0  0  0
   -0.2707   -1.5880   -2.2408 H   0  0  0  0  0  0  0  0  0  0  0  0
   -2.5730   -2.2567    1.3880 H   0  0  0  0  0  0  0  0  0  0  0  0
   -1.0291   -2.7637    2.0410 H   0  0  0  0  0  0  0  0  0  0  0  0
   -1.9640   -1.5698    2.9040 H   0  0  0  0  0  0  0  0  0  0  0  0
    0.9890   -1.9661    2.8946 H   0  0  0  0  0  0  0  0  0  0  0  0
    2.1069   -0.6212    2.8291 H   0  0  0  0  0  0  0  0  0  0  0  0
   -6.0863    3.5618    1.3630 H   0  0  0  0  0  0  0  0  0  0  0  0
   -5.7850    3.6395   -0.3754 H   0  0  0  0  0  0  0  0  0  0  0  0
   -7.4360    3.6081    0.2346 H   0  0  0  0  0  0  0  0  0  0  0  0
   -7.4681    0.1100    1.5301 H   0  0  0  0  0  0  0  0  0  0  0  0
   -6.8845    1.4774    2.4767 H   0  0  0  0  0  0  0  0  0  0  0  0
   -8.3246    1.6553    1.4884 H   0  0  0  0  0  0  0  0  0  0  0  0
    3.9920   -2.1866    1.5457 H   0  0  0  0  0  0  0  0  0  0  0  0
    2.7882   -3.2540    2.2012 H   0  0  0  0  0  0  0  0  0  0  0  0
    2.2564   -5.0162   -1.1002 H   0  0  0  0  0  0  0  0  0  0  0  0
    3.6538   -3.1459   -0.7209 H   0  0  0  0  0  0  0  0  0  0  0  0
    4.1331   -4.3578    0.4562 H   0  0  0  0  0  0  0  0  0  0  0  0
   -8.8729    1.0264   -1.8305 H   0  0  0  0  0  0  0  0  0  0  0  0
   -6.7527   -1.9959   -1.0102 H   0  0  0  0  0  0  0  0  0  0  0  0
   -0.4679   -5.2749   -0.7441 H   0  0  0  0  0  0  0  0  0  0  0  0
   -1.2468   -3.7464   -1.0360 H   0  0  0  0  0  0  0  0  0  0  0  0
   -0.0313   -4.3429   -2.1855 H   0  0  0  0  0  0  0  0  0  0  0  0
    2.6870   -6.1259    1.1328 H   0  0  0  0  0  0  0  0  0  0  0  0
    1.4361   -5.0994    1.8574 H   0  0  0  0  0  0  0  0  0  0  0  0
    1.0168   -6.2606    0.5955 H   0  0  0  0  0  0  0  0  0  0  0  0
    3.5126    1.6604   -0.3530 H   0  0  0  0  0  0  0  0  0  0  0  0
    5.5369    1.2236    1.9120 H   0  0  0  0  0  0  0  0  0  0  0  0
    5.2258    3.7729    0.2344 H   0  0  0  0  0  0  0  0  0  0  0  0
    5.1654    2.1402   -1.9883 H   0  0  0  0  0  0  0  0  0  0  0  0
    7.5131    1.7518   -0.0217 H   0  0  0  0  0  0  0  0  0  0  0  0
    3.4106    3.0633    1.4928 H   0  0  0  0  0  0  0  0  0  0  0  0
    7.3331    1.5545   -3.0894 H   0  0  0  0  0  0  0  0  0  0  0  0
    7.4820    0.1431   -2.0053 H   0  0  0  0  0  0  0  0  0  0  0  0
    7.2187    2.7929    2.0015 H   0  0  0  0  0  0  0  0  0  0  0  0
    6.6589    3.9593   -1.6026 H   0  0  0  0  0  0  0  0  0  0  0  0
    6.5324   -0.3690   -3.9936 H   0  0  0  0  0  0  0  0  0  0  0  0
  1 22  1  0  0  0  0
  1 83  1  0  0  0  0
  2 23  1  0  0  0  0
  2 84  1  0  0  0  0
  3 37  1  0  0  0  0
  3 40  1  0  0  0  0
  4 37  2  0  0  0  0
  5 40  1  0  0  0  0
  5 43  1  0  0  0  0
  6 41  1  0  0  0  0
  6 96  1  0  0  0  0
  7 42  1  0  0  0  0
  7 99  1  0  0  0  0
  8 44  1  0  0  0  0
  8100  1  0  0  0  0
  9 45  1  0  0  0  0
  9101  1  0  0  0  0
 10 12  1  0  0  0  0
 10 14  1  0  0  0  0
 10 15  1  0  0  0  0
 10 24  1  0  0  0  0
 11 12  1  0  0  0  0
 11 13  1  0  0  0  0
 11 18  1  0  0  0  0
 11 25  1  0  0  0  0
 12 19  1  0  0  0  0
 12 46  1  0  0  0  0
 13 16  1  0  0  0  0
 13 17  1  0  0  0  0
 13 47  1  0  0  0  0
 14 20  1  0  0  0  0
 14 21  1  0  0  0  0
 14 28  1  0  0  0  0
 15 17  1  0  0  0  0
 15 48  1  0  0  0  0
 15 49  1  0  0  0  0
 16 22  1  0  0  0  0
 16 31  1  0  0  0  0
 16 32  1  0  0  0  0
 17 50  1  0  0  0  0
 17 51  1  0  0  0  0
 18 23  1  0  0  0  0
 18 52  1  0  0  0  0
 18 53  1  0  0  0  0
 19 26  1  0  0  0  0
 19 54  1  0  0  0  0
 19 55  1  0  0  0  0
 20 26  2  0  0  0  0
 20 30  1  0  0  0  0
 21 29  1  0  0  0  0
 21 56  1  0  0  0  0
 21 57  1  0  0  0  0
 22 23  1  0  0  0  0
 22 58  1  0  0  0  0
 23 59  1  0  0  0  0
 24 60  1  0  0  0  0
 24 61  1  0  0  0  0
 24 62  1  0  0  0  0
 25 63  1  0  0  0  0
 25 64  1  0  0  0  0
 25 65  1  0  0  0  0
 26 66  1  0  0  0  0
 27 29  1  0  0  0  0
 27 30  1  0  0  0  0
 27 33  1  0  0  0  0
 27 37  1  0  0  0  0
 28 67  1  0  0  0  0
 28 68  1  0  0  0  0
 28 69  1  0  0  0  0
 29 70  1  0  0  0  0
 29 71  1  0  0  0  0
 30 34  2  0  0  0  0
 31 72  1  0  0  0  0
 31 73  1  0  0  0  0
 31 74  1  0  0  0  0
 32 75  1  0  0  0  0
 32 76  1  0  0  0  0
 32 77  1  0  0  0  0
 33 36  1  0  0  0  0
 33 78  1  0  0  0  0
 33 79  1  0  0  0  0
 34 35  1  0  0  0  0
 34 38  1  0  0  0  0
 35 36  1  0  0  0  0
 35 39  1  0  0  0  0
 35 80  1  0  0  0  0
 36 81  1  0  0  0  0
 36 82  1  0  0  0  0
 38 85  1  0  0  0  0
 38 86  1  0  0  0  0
 38 87  1  0  0  0  0
 39 88  1  0  0  0  0
 39 89  1  0  0  0  0
 39 90  1  0  0  0  0
 40 41  1  0  0  0  0
 40 91  1  0  0  0  0
 41 42  1  0  0  0  0
 41 92  1  0  0  0  0
 42 44  1  0  0  0  0
 42 93  1  0  0  0  0
 43 44  1  0  0  0  0
 43 45  1  0  0  0  0
 43 94  1  0  0  0  0
 44 95  1  0  0  0  0
 45 97  1  0  0  0  0
 45 98  1  0  0  0  0
M  END
> <PUBCHEM_COMPOUND_CID>
44557351

> <PUBCHEM_CONFORMER_RMSD>
1

> <PUBCHEM_CONFORMER_DIVERSEORDER>
1
19
26
24
25
6
31
13
18
34
5
32
16
27
9
20
30
23
29
10
17
14
7
33
3
11
21
22
4
12
28
8
15
2

> <PUBCHEM_MMFF94_PARTIAL_CHARGES>
34
1 -0.68
100 0.4
101 0.4
14 0.14
19 0.14
2 -0.68
20 -0.14
22 0.28
23 0.28
26 -0.29
27 0.2
3 -0.43
30 -0.14
34 -0.28
35 0.14
37 0.66
38 0.14
4 -0.57
40 0.56
41 0.28
42 0.28
43 0.28
44 0.28
45 0.28
5 -0.56
6 -0.68
66 0.15
7 -0.68
8 -0.68
83 0.4
84 0.4
9 -0.68
96 0.4
99 0.4

> <PUBCHEM_EFFECTIVE_ROTOR_COUNT>
7.6

> <PUBCHEM_PHARMACOPHORE_FEATURES>
21
1 1 acceptor
1 1 donor
1 2 acceptor
1 2 donor
1 4 acceptor
1 5 acceptor
1 6 acceptor
1 6 donor
1 7 acceptor
1 7 donor
1 8 acceptor
1 8 donor
1 9 acceptor
1 9 donor
3 16 31 32 hydrophobe
6 10 11 12 13 15 17 rings
6 10 12 14 19 20 26 rings
6 11 13 16 18 22 23 rings
6 14 20 21 27 29 30 rings
6 27 30 33 34 35 36 rings
6 5 40 41 42 43 44 rings

> <PUBCHEM_HEAVY_ATOM_COUNT>
45

> <PUBCHEM_ATOM_DEF_STEREO_COUNT>
14

> <PUBCHEM_ATOM_UDEF_STEREO_COUNT>
0

> <PUBCHEM_BOND_DEF_STEREO_COUNT>
0

> <PUBCHEM_BOND_UDEF_STEREO_COUNT>
0

> <PUBCHEM_ISOTOPIC_ATOM_COUNT>
0

> <PUBCHEM_COMPONENT_COUNT>
1

> <PUBCHEM_CACTVS_TAUTO_COUNT>
1

> <PUBCHEM_CONFORMER_ID>
02A7E42700000001

> <PUBCHEM_MMFF94_ENERGY>
177.1715

> <PUBCHEM_FEATURE_SELFOVERLAP>
106.668

> <PUBCHEM_SHAPE_FINGERPRINT>
10 15 15574716906259265981
10673678 19 18411417306354317362
10721379 63 18270401560591541590
11007060 377 17987800850960211977
11062273 23 17902510720841197954
11135609 187 18340476842285363145
11181472 205 17985830325294470273
11445158 3 18053085234154433974
11505856 67 17174643940490837734
11578080 2 18187658989146893043
11828042 200 17982156023443139759
1200032 147 18261386772176444736
12522641 126 18338795611523405062
12741549 16 17468188947840199582
13150687 139 18412833482459446550
13782708 43 11455881469393604609
14294032 229 18191310579163878114
14415360 78 18267298918855646512
14664723 55 18114481036696612092
14747281 78 18268446649816640235
15082195 135 18270680870445909706
15131766 46 18341885278295259761
15183329 4 16988570104108111188
15198563 99 17692816308282508838
15439362 3 18411980261615718066
15513586 35 16593377248642759164
15685185 35 18267582605629738304
16993427 108 10951786135771554652
16994733 274 18334288752432529801
18365409 1 18197495340770907535
18393751 57 17167859777146865953
19304144 158 18114726171564374477
21033648 144 18261107474357723371
21033648 29 18337673143880565504
23522609 53 17703520883392289369
27425 322 18270960275759716660
38570 142 18201445774184560502
4058900 60 18411703188004618098
4093350 32 18261670364471739891
4112364 45 18187635900124831106
44317340 157 18264486179338319793
4516262 110 18410848858811407820
46194498 28 18191018998102655287
6697151 62 17468168078124532111
9849439 229 18337383937909578370

> <PUBCHEM_SHAPE_MULTIPOLES>
873.26
20.22
5.17
2.26
9.76
5.7
-0.43
-23.49
-6.88
-8.46
0.75
-1.29
-0.5
-0.92

> <PUBCHEM_SHAPE_SELFOVERLAP>
1863.985

> <PUBCHEM_SHAPE_VOLUME>
475.7

> <PUBCHEM_COORDINATE_TYPE>
2
5
10

$$$$
