44557481
  -OEChem-08282001033D

104109  0     1  0  0  0  0  0999 V2000
   -8.5099   -0.9486    0.6370 O   0  0  0  0  0  0  0  0  0  0  0  0
   -7.5281    1.5265    1.5560 O   0  0  0  0  0  0  0  0  0  0  0  0
    3.8735   -0.2285   -0.9611 O   0  0  0  0  0  0  0  0  0  0  0  0
   -7.5336   -3.4912    0.6262 O   0  0  0  0  0  0  0  0  0  0  0  0
    2.4240    0.2895    0.7614 O   0  0  0  0  0  0  0  0  0  0  0  0
    5.4653   -0.3923    0.7369 O   0  0  0  0  0  0  0  0  0  0  0  0
    4.4242   -2.9027   -1.7051 O   0  0  0  0  0  0  0  0  0  0  0  0
    7.1746   -3.6946   -1.0065 O   0  0  0  0  0  0  0  0  0  0  0  0
    7.7327   -3.0794    1.7622 O   0  0  0  0  0  0  0  0  0  0  0  0
    6.1047    0.5342    3.2444 O   0  0  0  0  0  0  0  0  0  0  0  0
   -1.8568   -0.4294   -0.5526 C   0  0  1  0  0  0  0  0  0  0  0  0
   -0.7435    0.4966   -1.3006 C   0  0  1  0  0  0  0  0  0  0  0  0
   -2.9194    0.5136    0.1485 C   0  0  1  0  0  0  0  0  0  0  0  0
   -0.0776    1.4528   -0.2277 C   0  0  1  0  0  0  0  0  0  0  0  0
   -4.2323   -0.1927    0.7204 C   0  0  2  0  0  0  0  0  0  0  0  0
    1.0839    2.2633   -0.8453 C   0  0  2  0  0  0  0  0  0  0  0  0
   -4.8509   -1.0444   -0.4524 C   0  0  1  0  0  0  0  0  0  0  0  0
    2.1651    1.3276   -1.4148 C   0  0  1  0  0  0  0  0  0  0  0  0
   -2.5915   -1.3547   -1.5621 C   0  0  0  0  0  0  0  0  0  0  0  0
   -2.2386    1.4983    1.1262 C   0  0  0  0  0  0  0  0  0  0  0  0
    0.3736   -0.3569   -2.0008 C   0  0  0  0  0  0  0  0  0  0  0  0
   -1.1231    2.3229    0.4783 C   0  0  0  0  0  0  0  0  0  0  0  0
   -3.8310   -2.0612   -1.0021 C   0  0  0  0  0  0  0  0  0  0  0  0
    1.5789    0.4546   -2.5235 C   0  0  0  0  0  0  0  0  0  0  0  0
   -6.2918   -1.6256   -0.2015 C   0  0  2  0  0  0  0  0  0  0  0  0
    1.8938    3.2457    0.0231 C   0  0  1  0  0  0  0  0  0  0  0  0
   -5.2715    0.9071    1.0963 C   0  0  0  0  0  0  0  0  0  0  0  0
   -1.1596   -1.3643    0.4808 C   0  0  0  0  0  0  0  0  0  0  0  0
   -1.3991    1.3410   -2.4463 C   0  0  0  0  0  0  0  0  0  0  0  0
    3.2313    2.3298   -1.8531 C   0  0  0  0  0  0  0  0  0  0  0  0
    3.2355    3.3892   -0.7355 C   0  0  0  0  0  0  0  0  0  0  0  0
   -3.9418   -1.0109    2.0006 C   0  0  0  0  0  0  0  0  0  0  0  0
   -7.2309   -0.4586    0.2229 C   0  0  2  0  0  0  0  0  0  0  0  0
   -6.6834    0.3848    1.3732 C   0  0  2  0  0  0  0  0  0  0  0  0
    2.8137    0.4132   -0.3919 C   0  0  0  0  0  0  0  0  0  0  0  0
   -6.3315   -2.7792    0.8215 C   0  0  0  0  0  0  0  0  0  0  0  0
   -6.8521   -2.2139   -1.5282 C   0  0  0  0  0  0  0  0  0  0  0  0
    1.2462    4.5773    0.2278 C   0  0  0  0  0  0  0  0  0  0  0  0
    1.0107    4.9864    1.6515 C   0  0  0  0  0  0  0  0  0  0  0  0
    0.8953    5.3611   -0.8025 C   0  0  0  0  0  0  0  0  0  0  0  0
    4.5789   -1.1262   -0.1047 C   0  0  2  0  0  0  0  0  0  0  0  0
    5.3605   -2.1008   -0.9857 C   0  0  1  0  0  0  0  0  0  0  0  0
    6.2648   -3.0051   -0.1479 C   0  0  2  0  0  0  0  0  0  0  0  0
    6.1861   -1.2331    1.6393 C   0  0  1  0  0  0  0  0  0  0  0  0
    7.0843   -2.1924    0.8546 C   0  0  1  0  0  0  0  0  0  0  0  0
    6.9965   -0.3288    2.5627 C   0  0  0  0  0  0  0  0  0  0  0  0
   -3.3210    1.1507   -0.6493 H   0  0  0  0  0  0  0  0  0  0  0  0
    0.3289    0.8309    0.5667 H   0  0  0  0  0  0  0  0  0  0  0  0
    0.6689    2.8412   -1.6791 H   0  0  0  0  0  0  0  0  0  0  0  0
   -4.9999   -0.3249   -1.2757 H   0  0  0  0  0  0  0  0  0  0  0  0
   -2.9331   -0.7833   -2.4297 H   0  0  0  0  0  0  0  0  0  0  0  0
   -1.9029   -2.1149   -1.9507 H   0  0  0  0  0  0  0  0  0  0  0  0
   -2.9687    2.2071    1.5291 H   0  0  0  0  0  0  0  0  0  0  0  0
   -1.8211    0.9689    1.9880 H   0  0  0  0  0  0  0  0  0  0  0  0
   -0.0533   -0.9185   -2.8407 H   0  0  0  0  0  0  0  0  0  0  0  0
    0.7764   -1.1048   -1.3142 H   0  0  0  0  0  0  0  0  0  0  0  0
   -0.6579    2.8846    1.2849 H   0  0  0  0  0  0  0  0  0  0  0  0
   -1.5539    3.0554   -0.2130 H   0  0  0  0  0  0  0  0  0  0  0  0
   -4.2650   -2.6321   -1.8290 H   0  0  0  0  0  0  0  0  0  0  0  0
   -3.5461   -2.8007   -0.2499 H   0  0  0  0  0  0  0  0  0  0  0  0
    2.3248   -0.2418   -2.9261 H   0  0  0  0  0  0  0  0  0  0  0  0
    1.2690    1.0744   -3.3728 H   0  0  0  0  0  0  0  0  0  0  0  0
    2.0978    2.7908    1.0005 H   0  0  0  0  0  0  0  0  0  0  0  0
   -4.9385    1.4652    1.9805 H   0  0  0  0  0  0  0  0  0  0  0  0
   -5.3313    1.6535    0.2917 H   0  0  0  0  0  0  0  0  0  0  0  0
   -0.6752   -0.8250    1.2966 H   0  0  0  0  0  0  0  0  0  0  0  0
   -0.4053   -2.0025    0.0141 H   0  0  0  0  0  0  0  0  0  0  0  0
   -1.8457   -2.0700    0.9436 H   0  0  0  0  0  0  0  0  0  0  0  0
   -0.6878    2.0017   -2.9474 H   0  0  0  0  0  0  0  0  0  0  0  0
   -1.7965    0.7039   -3.2417 H   0  0  0  0  0  0  0  0  0  0  0  0
   -2.2095    1.9858   -2.1034 H   0  0  0  0  0  0  0  0  0  0  0  0
    2.9350    2.8098   -2.7948 H   0  0  0  0  0  0  0  0  0  0  0  0
    4.2330    1.9174   -2.0080 H   0  0  0  0  0  0  0  0  0  0  0  0
    4.0601    3.1852   -0.0404 H   0  0  0  0  0  0  0  0  0  0  0  0
    3.4241    4.3832   -1.1551 H   0  0  0  0  0  0  0  0  0  0  0  0
   -3.1345   -0.5800    2.5969 H   0  0  0  0  0  0  0  0  0  0  0  0
   -4.8003   -1.0506    2.6757 H   0  0  0  0  0  0  0  0  0  0  0  0
   -3.6858   -2.0507    1.7944 H   0  0  0  0  0  0  0  0  0  0  0  0
   -7.4153    0.2048   -0.6330 H   0  0  0  0  0  0  0  0  0  0  0  0
   -6.7311   -0.1750    2.3122 H   0  0  0  0  0  0  0  0  0  0  0  0
   -6.3054   -2.4309    1.8552 H   0  0  0  0  0  0  0  0  0  0  0  0
   -5.5076   -3.4818    0.6694 H   0  0  0  0  0  0  0  0  0  0  0  0
   -7.9271   -2.4184   -1.4948 H   0  0  0  0  0  0  0  0  0  0  0  0
   -6.3585   -3.1531   -1.8008 H   0  0  0  0  0  0  0  0  0  0  0  0
   -6.7005   -1.5107   -2.3559 H   0  0  0  0  0  0  0  0  0  0  0  0
   -8.9928   -1.2353   -0.1554 H   0  0  0  0  0  0  0  0  0  0  0  0
   -7.1834    2.0280    2.3146 H   0  0  0  0  0  0  0  0  0  0  0  0
    0.3425    5.8513    1.7218 H   0  0  0  0  0  0  0  0  0  0  0  0
    1.9643    5.2640    2.1140 H   0  0  0  0  0  0  0  0  0  0  0  0
    0.5772    4.1869    2.2551 H   0  0  0  0  0  0  0  0  0  0  0  0
    1.0700    5.0758   -1.8340 H   0  0  0  0  0  0  0  0  0  0  0  0
    0.4257    6.3253   -0.6357 H   0  0  0  0  0  0  0  0  0  0  0  0
   -7.5460   -4.2201    1.2696 H   0  0  0  0  0  0  0  0  0  0  0  0
    3.8568   -1.6827    0.5093 H   0  0  0  0  0  0  0  0  0  0  0  0
    5.9487   -1.5549   -1.7327 H   0  0  0  0  0  0  0  0  0  0  0  0
    5.6801   -3.7796    0.3621 H   0  0  0  0  0  0  0  0  0  0  0  0
    5.4625   -1.7848    2.2549 H   0  0  0  0  0  0  0  0  0  0  0  0
    7.8675   -1.6360    0.3253 H   0  0  0  0  0  0  0  0  0  0  0  0
    3.8885   -3.3940   -1.0591 H   0  0  0  0  0  0  0  0  0  0  0  0
    7.5581   -0.9085    3.3014 H   0  0  0  0  0  0  0  0  0  0  0  0
    7.6897    0.2946    1.9882 H   0  0  0  0  0  0  0  0  0  0  0  0
    7.6978   -3.0313   -1.4880 H   0  0  0  0  0  0  0  0  0  0  0  0
    7.0459   -3.5682    2.2469 H   0  0  0  0  0  0  0  0  0  0  0  0
    6.6412    1.1032    3.8223 H   0  0  0  0  0  0  0  0  0  0  0  0
  1 33  1  0  0  0  0
  1 86  1  0  0  0  0
  2 34  1  0  0  0  0
  2 87  1  0  0  0  0
  3 35  1  0  0  0  0
  3 41  1  0  0  0  0
  4 36  1  0  0  0  0
  4 93  1  0  0  0  0
  5 35  2  0  0  0  0
  6 41  1  0  0  0  0
  6 44  1  0  0  0  0
  7 42  1  0  0  0  0
  7 99  1  0  0  0  0
  8 43  1  0  0  0  0
  8102  1  0  0  0  0
  9 45  1  0  0  0  0
  9103  1  0  0  0  0
 10 46  1  0  0  0  0
 10104  1  0  0  0  0
 11 12  1  0  0  0  0
 11 13  1  0  0  0  0
 11 19  1  0  0  0  0
 11 28  1  0  0  0  0
 12 14  1  0  0  0  0
 12 21  1  0  0  0  0
 12 29  1  0  0  0  0
 13 15  1  0  0  0  0
 13 20  1  0  0  0  0
 13 47  1  0  0  0  0
 14 16  1  0  0  0  0
 14 22  1  0  0  0  0
 14 48  1  0  0  0  0
 15 17  1  0  0  0  0
 15 27  1  0  0  0  0
 15 32  1  0  0  0  0
 16 18  1  0  0  0  0
 16 26  1  0  0  0  0
 16 49  1  0  0  0  0
 17 23  1  0  0  0  0
 17 25  1  0  0  0  0
 17 50  1  0  0  0  0
 18 24  1  0  0  0  0
 18 30  1  0  0  0  0
 18 35  1  0  0  0  0
 19 23  1  0  0  0  0
 19 51  1  0  0  0  0
 19 52  1  0  0  0  0
 20 22  1  0  0  0  0
 20 53  1  0  0  0  0
 20 54  1  0  0  0  0
 21 24  1  0  0  0  0
 21 55  1  0  0  0  0
 21 56  1  0  0  0  0
 22 57  1  0  0  0  0
 22 58  1  0  0  0  0
 23 59  1  0  0  0  0
 23 60  1  0  0  0  0
 24 61  1  0  0  0  0
 24 62  1  0  0  0  0
 25 33  1  0  0  0  0
 25 36  1  0  0  0  0
 25 37  1  0  0  0  0
 26 31  1  0  0  0  0
 26 38  1  0  0  0  0
 26 63  1  0  0  0  0
 27 34  1  0  0  0  0
 27 64  1  0  0  0  0
 27 65  1  0  0  0  0
 28 66  1  0  0  0  0
 28 67  1  0  0  0  0
 28 68  1  0  0  0  0
 29 69  1  0  0  0  0
 29 70  1  0  0  0  0
 29 71  1  0  0  0  0
 30 31  1  0  0  0  0
 30 72  1  0  0  0  0
 30 73  1  0  0  0  0
 31 74  1  0  0  0  0
 31 75  1  0  0  0  0
 32 76  1  0  0  0  0
 32 77  1  0  0  0  0
 32 78  1  0  0  0  0
 33 34  1  0  0  0  0
 33 79  1  0  0  0  0
 34 80  1  0  0  0  0
 36 81  1  0  0  0  0
 36 82  1  0  0  0  0
 37 83  1  0  0  0  0
 37 84  1  0  0  0  0
 37 85  1  0  0  0  0
 38 39  1  0  0  0  0
 38 40  2  0  0  0  0
 39 88  1  0  0  0  0
 39 89  1  0  0  0  0
 39 90  1  0  0  0  0
 40 91  1  0  0  0  0
 40 92  1  0  0  0  0
 41 42  1  0  0  0  0
 41 94  1  0  0  0  0
 42 43  1  0  0  0  0
 42 95  1  0  0  0  0
 43 45  1  0  0  0  0
 43 96  1  0  0  0  0
 44 45  1  0  0  0  0
 44 46  1  0  0  0  0
 44 97  1  0  0  0  0
 45 98  1  0  0  0  0
 46100  1  0  0  0  0
 46101  1  0  0  0  0
M  END
> <PUBCHEM_COMPOUND_CID>
44557481

> <PUBCHEM_CONFORMER_RMSD>
1.2

> <PUBCHEM_CONFORMER_DIVERSEORDER>
1
10
5
14
15
13
17
9
16
8
7
4
12
3
6
11
2

> <PUBCHEM_MMFF94_PARTIAL_CHARGES>
34
1 -0.68
10 -0.68
102 0.4
103 0.4
104 0.4
18 0.06
2 -0.68
26 0.14
3 -0.43
33 0.28
34 0.28
35 0.66
36 0.28
38 -0.28
39 0.14
4 -0.68
40 -0.3
41 0.56
42 0.28
43 0.28
44 0.28
45 0.28
46 0.28
5 -0.57
6 -0.56
7 -0.68
8 -0.68
86 0.4
87 0.4
9 -0.68
91 0.15
92 0.15
93 0.4
99 0.4

> <PUBCHEM_EFFECTIVE_ROTOR_COUNT>
9.8

> <PUBCHEM_PHARMACOPHORE_FEATURES>
22
1 1 acceptor
1 1 donor
1 10 acceptor
1 10 donor
1 2 acceptor
1 2 donor
1 4 acceptor
1 4 donor
1 5 acceptor
1 6 acceptor
1 7 acceptor
1 7 donor
1 8 acceptor
1 8 donor
1 9 acceptor
1 9 donor
5 16 18 26 30 31 rings
6 11 12 13 14 20 22 rings
6 11 13 15 17 19 23 rings
6 12 14 16 18 21 24 rings
6 15 17 25 27 33 34 rings
6 6 41 42 43 44 45 rings

> <PUBCHEM_HEAVY_ATOM_COUNT>
46

> <PUBCHEM_ATOM_DEF_STEREO_COUNT>
17

> <PUBCHEM_ATOM_UDEF_STEREO_COUNT>
0

> <PUBCHEM_BOND_DEF_STEREO_COUNT>
0

> <PUBCHEM_BOND_UDEF_STEREO_COUNT>
0

> <PUBCHEM_ISOTOPIC_ATOM_COUNT>
0

> <PUBCHEM_COMPONENT_COUNT>
1

> <PUBCHEM_CACTVS_TAUTO_COUNT>
1

> <PUBCHEM_CONFORMER_ID>
02A7E4A900000001

> <PUBCHEM_MMFF94_ENERGY>
200.13

> <PUBCHEM_FEATURE_SELFOVERLAP>
111.788

> <PUBCHEM_SHAPE_FINGERPRINT>
10 15 16415476056129161602
10190206 1 11819276620277184670
11136131 41 18124879224611986240
11456790 92 18337126583633265745
11578080 2 12751240354228971652
12061779 8 13900750088031269090
12107183 9 18342749490096961169
12422481 6 17775007834725995132
13383668 362 18057033821111912515
13673619 4 17749107768543730278
13782708 43 17967532397974548999
13811026 1 18272082773767156181
13947947 73 18187641414857674725
14068700 675 18187650146378714812
14664723 55 10663521743668619770
14705955 166 17489023734922746626
15264996 151 18197224861670220633
15513586 35 13683150117964354802
16758388 162 18412552029168828921
16993427 108 18114733825280297186
16994733 274 11312060928938395183
18393751 57 15051729781186360551
19301679 30 18339079294587175956
19841028 212 18260832617799632746
21033648 29 15123523492860922143
21344244 78 18272650169044098512
22889206 1 17771899704438894120
23559900 14 17386857273689583853
23569943 247 18040149592134559643
32027 91 18261396710530469731
3383291 50 18333448737964559731
3986486 107 10737288996868197994
4112364 45 15697707229402663120
4149490 64 18337115691828499403
42767 28 11818997357704100358
474113 269 18411414004205163471
50009960 94 18265604554157115375
5104073 3 18128551525598491705
513202 73 17894911811344854501
5265222 85 10665526144390712585
57816373 69 18187926235160455315
6058803 2 17984705781958457437
6086070 43 18337093606763408509
9896288 288 17908143175317574448
9962374 69 18335978778459549462

> <PUBCHEM_SHAPE_MULTIPOLES>
887.97
21.72
5.3
2.26
8.1
5.38
-0.3
-25.48
-10.89
-6.07
-0.11
-2.17
0.07
-1.35

> <PUBCHEM_SHAPE_SELFOVERLAP>
1885.818

> <PUBCHEM_SHAPE_VOLUME>
490.2

> <PUBCHEM_COORDINATE_TYPE>
2
5
10

$$$$
