44557414
  -OEChem-08282001003D

101106  0     1  0  0  0  0  0999 V2000
   -8.2785    1.1332   -0.3719 O   0  0  0  0  0  0  0  0  0  0  0  0
   -7.0504   -0.0556   -2.6158 O   0  0  0  0  0  0  0  0  0  0  0  0
    3.7792   -0.2576    1.1689 O   0  0  0  0  0  0  0  0  0  0  0  0
    2.6355    0.0891   -0.8081 O   0  0  0  0  0  0  0  0  0  0  0  0
    3.4612    1.9707    0.5545 O   0  0  0  0  0  0  0  0  0  0  0  0
    6.5464    0.0154    0.6433 O   0  0  0  0  0  0  0  0  0  0  0  0
    7.0823    2.0897   -1.3794 O   0  0  0  0  0  0  0  0  0  0  0  0
    5.7441    4.5547   -0.6805 O   0  0  0  0  0  0  0  0  0  0  0  0
    2.3637    3.7998   -1.2172 O   0  0  0  0  0  0  0  0  0  0  0  0
   -1.6994    0.0049    0.7934 C   0  0  2  0  0  0  0  0  0  0  0  0
   -3.9629    0.7102   -0.5274 C   0  0  2  0  0  0  0  0  0  0  0  0
   -2.6309   -0.1712   -0.4673 C   0  0  1  0  0  0  0  0  0  0  0  0
   -0.6304   -1.2387    0.8296 C   0  0  1  0  0  0  0  0  0  0  0  0
   -4.7062    0.5341    0.8467 C   0  0  2  0  0  0  0  0  0  0  0  0
   -2.5644    0.0392    2.0838 C   0  0  0  0  0  0  0  0  0  0  0  0
   -6.1781    1.0885    0.9226 C   0  0  0  0  0  0  0  0  0  0  0  0
   -3.7884    0.9540    2.0135 C   0  0  0  0  0  0  0  0  0  0  0  0
   -4.8839    0.1311   -1.6403 C   0  0  0  0  0  0  0  0  0  0  0  0
    0.0122   -1.4597   -0.5579 C   0  0  0  0  0  0  0  0  0  0  0  0
   -1.7915   -0.1466   -1.7620 C   0  0  0  0  0  0  0  0  0  0  0  0
    0.4792   -0.9655    1.8870 C   0  0  0  0  0  0  0  0  0  0  0  0
    1.3032   -2.2946   -0.6872 C   0  0  1  0  0  0  0  0  0  0  0  0
    2.3282   -1.9659    0.4438 C   0  0  1  0  0  0  0  0  0  0  0  0
   -0.9286    1.3575    0.7200 C   0  0  0  0  0  0  0  0  0  0  0  0
   -6.9940    0.5104   -0.2744 C   0  0  2  0  0  0  0  0  0  0  0  0
   -6.3117    0.6777   -1.6320 C   0  0  2  0  0  0  0  0  0  0  0  0
   -3.6852    2.1921   -0.8831 C   0  0  0  0  0  0  0  0  0  0  0  0
    1.6605   -1.9353    1.8319 C   0  0  0  0  0  0  0  0  0  0  0  0
   -0.5214   -0.9337   -1.6783 C   0  0  0  0  0  0  0  0  0  0  0  0
   -1.3234   -2.5706    1.2435 C   0  0  0  0  0  0  0  0  0  0  0  0
   -6.8509    0.5814    2.2307 C   0  0  0  0  0  0  0  0  0  0  0  0
   -6.2642    2.6274    0.9737 C   0  0  0  0  0  0  0  0  0  0  0  0
    3.5499   -2.9229    0.4874 C   0  0  0  0  0  0  0  0  0  0  0  0
    1.0737   -3.7962   -0.9274 C   0  0  0  0  0  0  0  0  0  0  0  0
    2.2755   -4.7154   -0.7663 C   0  0  1  0  0  0  0  0  0  0  0  0
    3.5811   -3.9203   -0.6640 C   0  0  0  0  0  0  0  0  0  0  0  0
    2.9146   -0.5921    0.1693 C   0  0  0  0  0  0  0  0  0  0  0  0
   -0.0771   -4.3295   -1.3805 C   0  0  0  0  0  0  0  0  0  0  0  0
    2.1021   -5.6728    0.4203 C   0  0  0  0  0  0  0  0  0  0  0  0
    4.4058    1.0179    1.0363 C   0  0  2  0  0  0  0  0  0  0  0  0
    5.5680    0.8715    0.0540 C   0  0  1  0  0  0  0  0  0  0  0  0
    6.2029    2.2259   -0.2620 C   0  0  2  0  0  0  0  0  0  0  0  0
    4.0206    3.2787    0.4228 C   0  0  1  0  0  0  0  0  0  0  0  0
    5.1404    3.2650   -0.6202 C   0  0  1  0  0  0  0  0  0  0  0  0
    2.8911    4.2242    0.0264 C   0  0  0  0  0  0  0  0  0  0  0  0
   -3.0136   -1.1992   -0.3995 H   0  0  0  0  0  0  0  0  0  0  0  0
   -4.8356   -0.5557    0.9618 H   0  0  0  0  0  0  0  0  0  0  0  0
   -1.9527    0.3300    2.9463 H   0  0  0  0  0  0  0  0  0  0  0  0
   -2.9540   -0.9564    2.3133 H   0  0  0  0  0  0  0  0  0  0  0  0
   -3.4818    2.0006    1.9440 H   0  0  0  0  0  0  0  0  0  0  0  0
   -4.3078    0.8579    2.9713 H   0  0  0  0  0  0  0  0  0  0  0  0
   -4.9346   -0.9633   -1.5510 H   0  0  0  0  0  0  0  0  0  0  0  0
   -4.4492    0.3155   -2.6313 H   0  0  0  0  0  0  0  0  0  0  0  0
   -2.3812   -0.5621   -2.5866 H   0  0  0  0  0  0  0  0  0  0  0  0
   -1.5147    0.8700   -2.0522 H   0  0  0  0  0  0  0  0  0  0  0  0
    0.8990    0.0371    1.7727 H   0  0  0  0  0  0  0  0  0  0  0  0
    0.0507   -0.9958    2.8966 H   0  0  0  0  0  0  0  0  0  0  0  0
    1.7820   -1.9845   -1.6312 H   0  0  0  0  0  0  0  0  0  0  0  0
   -0.4526    1.6010    1.6762 H   0  0  0  0  0  0  0  0  0  0  0  0
   -1.5737    2.2062    0.5091 H   0  0  0  0  0  0  0  0  0  0  0  0
   -0.1455    1.3541   -0.0441 H   0  0  0  0  0  0  0  0  0  0  0  0
   -7.1810   -0.5605   -0.1160 H   0  0  0  0  0  0  0  0  0  0  0  0
   -6.3499    1.7242   -1.9490 H   0  0  0  0  0  0  0  0  0  0  0  0
   -3.4696    2.8107   -0.0110 H   0  0  0  0  0  0  0  0  0  0  0  0
   -4.5297    2.6695   -1.3843 H   0  0  0  0  0  0  0  0  0  0  0  0
   -2.8558    2.3102   -1.5824 H   0  0  0  0  0  0  0  0  0  0  0  0
    1.3218   -2.9403    2.1077 H   0  0  0  0  0  0  0  0  0  0  0  0
    2.3767   -1.6487    2.6130 H   0  0  0  0  0  0  0  0  0  0  0  0
   -0.0224   -1.0965   -2.6315 H   0  0  0  0  0  0  0  0  0  0  0  0
   -2.1772   -2.8175    0.6070 H   0  0  0  0  0  0  0  0  0  0  0  0
   -0.6447   -3.4264    1.1995 H   0  0  0  0  0  0  0  0  0  0  0  0
   -1.6704   -2.5451    2.2813 H   0  0  0  0  0  0  0  0  0  0  0  0
   -6.7714   -0.5077    2.3208 H   0  0  0  0  0  0  0  0  0  0  0  0
   -6.4023    1.0284    3.1232 H   0  0  0  0  0  0  0  0  0  0  0  0
   -7.9154    0.8365    2.2665 H   0  0  0  0  0  0  0  0  0  0  0  0
   -5.5900    3.0449    1.7281 H   0  0  0  0  0  0  0  0  0  0  0  0
   -6.0363    3.0974    0.0169 H   0  0  0  0  0  0  0  0  0  0  0  0
   -7.2760    2.9569    1.2397 H   0  0  0  0  0  0  0  0  0  0  0  0
    4.5096   -2.3916    0.4679 H   0  0  0  0  0  0  0  0  0  0  0  0
    3.5613   -3.4822    1.4316 H   0  0  0  0  0  0  0  0  0  0  0  0
    2.3601   -5.3330   -1.6719 H   0  0  0  0  0  0  0  0  0  0  0  0
    4.4274   -4.6052   -0.5294 H   0  0  0  0  0  0  0  0  0  0  0  0
    3.7680   -3.3863   -1.6050 H   0  0  0  0  0  0  0  0  0  0  0  0
   -8.8212    0.8184    0.3697 H   0  0  0  0  0  0  0  0  0  0  0  0
   -6.6224    0.0948   -3.4761 H   0  0  0  0  0  0  0  0  0  0  0  0
   -0.9639   -3.7405   -1.5779 H   0  0  0  0  0  0  0  0  0  0  0  0
   -0.1595   -5.3938   -1.5793 H   0  0  0  0  0  0  0  0  0  0  0  0
    1.2636   -6.3579    0.2537 H   0  0  0  0  0  0  0  0  0  0  0  0
    2.9996   -6.2855    0.5581 H   0  0  0  0  0  0  0  0  0  0  0  0
    1.9076   -5.1413    1.3567 H   0  0  0  0  0  0  0  0  0  0  0  0
    4.7478    1.3088    2.0365 H   0  0  0  0  0  0  0  0  0  0  0  0
    5.2522    0.3840   -0.8749 H   0  0  0  0  0  0  0  0  0  0  0  0
    6.8226    2.5723    0.5734 H   0  0  0  0  0  0  0  0  0  0  0  0
    4.4034    3.6075    1.3981 H   0  0  0  0  0  0  0  0  0  0  0  0
    4.7464    3.0430   -1.6190 H   0  0  0  0  0  0  0  0  0  0  0  0
    6.8517    0.4300    1.4682 H   0  0  0  0  0  0  0  0  0  0  0  0
    2.0829    4.1813    0.7640 H   0  0  0  0  0  0  0  0  0  0  0  0
    3.2400    5.2573   -0.0642 H   0  0  0  0  0  0  0  0  0  0  0  0
    6.5637    1.7660   -2.1356 H   0  0  0  0  0  0  0  0  0  0  0  0
    6.0964    4.7632    0.2016 H   0  0  0  0  0  0  0  0  0  0  0  0
    1.6388    4.4069   -1.4438 H   0  0  0  0  0  0  0  0  0  0  0  0
  1 25  1  0  0  0  0
  1 84  1  0  0  0  0
  2 26  1  0  0  0  0
  2 85  1  0  0  0  0
  3 37  1  0  0  0  0
  3 40  1  0  0  0  0
  4 37  2  0  0  0  0
  5 40  1  0  0  0  0
  5 43  1  0  0  0  0
  6 41  1  0  0  0  0
  6 96  1  0  0  0  0
  7 42  1  0  0  0  0
  7 99  1  0  0  0  0
  8 44  1  0  0  0  0
  8100  1  0  0  0  0
  9 45  1  0  0  0  0
  9101  1  0  0  0  0
 10 12  1  0  0  0  0
 10 13  1  0  0  0  0
 10 15  1  0  0  0  0
 10 24  1  0  0  0  0
 11 12  1  0  0  0  0
 11 14  1  0  0  0  0
 11 18  1  0  0  0  0
 11 27  1  0  0  0  0
 12 20  1  0  0  0  0
 12 46  1  0  0  0  0
 13 19  1  0  0  0  0
 13 21  1  0  0  0  0
 13 30  1  0  0  0  0
 14 16  1  0  0  0  0
 14 17  1  0  0  0  0
 14 47  1  0  0  0  0
 15 17  1  0  0  0  0
 15 48  1  0  0  0  0
 15 49  1  0  0  0  0
 16 25  1  0  0  0  0
 16 31  1  0  0  0  0
 16 32  1  0  0  0  0
 17 50  1  0  0  0  0
 17 51  1  0  0  0  0
 18 26  1  0  0  0  0
 18 52  1  0  0  0  0
 18 53  1  0  0  0  0
 19 22  1  0  0  0  0
 19 29  2  0  0  0  0
 20 29  1  0  0  0  0
 20 54  1  0  0  0  0
 20 55  1  0  0  0  0
 21 28  1  0  0  0  0
 21 56  1  0  0  0  0
 21 57  1  0  0  0  0
 22 23  1  0  0  0  0
 22 34  1  0  0  0  0
 22 58  1  0  0  0  0
 23 28  1  0  0  0  0
 23 33  1  0  0  0  0
 23 37  1  0  0  0  0
 24 59  1  0  0  0  0
 24 60  1  0  0  0  0
 24 61  1  0  0  0  0
 25 26  1  0  0  0  0
 25 62  1  0  0  0  0
 26 63  1  0  0  0  0
 27 64  1  0  0  0  0
 27 65  1  0  0  0  0
 27 66  1  0  0  0  0
 28 67  1  0  0  0  0
 28 68  1  0  0  0  0
 29 69  1  0  0  0  0
 30 70  1  0  0  0  0
 30 71  1  0  0  0  0
 30 72  1  0  0  0  0
 31 73  1  0  0  0  0
 31 74  1  0  0  0  0
 31 75  1  0  0  0  0
 32 76  1  0  0  0  0
 32 77  1  0  0  0  0
 32 78  1  0  0  0  0
 33 36  1  0  0  0  0
 33 79  1  0  0  0  0
 33 80  1  0  0  0  0
 34 35  1  0  0  0  0
 34 38  2  0  0  0  0
 35 36  1  0  0  0  0
 35 39  1  0  0  0  0
 35 81  1  0  0  0  0
 36 82  1  0  0  0  0
 36 83  1  0  0  0  0
 38 86  1  0  0  0  0
 38 87  1  0  0  0  0
 39 88  1  0  0  0  0
 39 89  1  0  0  0  0
 39 90  1  0  0  0  0
 40 41  1  0  0  0  0
 40 91  1  0  0  0  0
 41 42  1  0  0  0  0
 41 92  1  0  0  0  0
 42 44  1  0  0  0  0
 42 93  1  0  0  0  0
 43 44  1  0  0  0  0
 43 45  1  0  0  0  0
 43 94  1  0  0  0  0
 44 95  1  0  0  0  0
 45 97  1  0  0  0  0
 45 98  1  0  0  0  0
M  END
> <PUBCHEM_COMPOUND_CID>
44557414

> <PUBCHEM_CONFORMER_RMSD>
1

> <PUBCHEM_CONFORMER_DIVERSEORDER>
4
14
11
20
9
25
19
32
26
3
18
24
6
27
8
28
21
30
2
7
23
31
17
13
16
15
29
1
12
5
10
22
33

> <PUBCHEM_MMFF94_PARTIAL_CHARGES>
36
1 -0.68
100 0.4
101 0.4
13 0.14
19 -0.28
2 -0.68
20 0.14
22 0.28
23 0.06
25 0.28
26 0.28
29 -0.29
3 -0.43
34 -0.28
35 0.14
37 0.66
38 -0.3
4 -0.57
40 0.56
41 0.28
42 0.28
43 0.28
44 0.28
45 0.28
5 -0.56
6 -0.68
69 0.15
7 -0.68
8 -0.68
84 0.4
85 0.4
86 0.15
87 0.15
9 -0.68
96 0.4
99 0.4

> <PUBCHEM_EFFECTIVE_ROTOR_COUNT>
7.6

> <PUBCHEM_PHARMACOPHORE_FEATURES>
21
1 1 acceptor
1 1 donor
1 2 acceptor
1 2 donor
1 4 acceptor
1 5 acceptor
1 6 acceptor
1 6 donor
1 7 acceptor
1 7 donor
1 8 acceptor
1 8 donor
1 9 acceptor
1 9 donor
3 16 31 32 hydrophobe
6 10 11 12 14 15 17 rings
6 10 12 13 19 20 29 rings
6 11 14 16 18 25 26 rings
6 13 19 21 22 23 28 rings
6 22 23 33 34 35 36 rings
6 5 40 41 42 43 44 rings

> <PUBCHEM_HEAVY_ATOM_COUNT>
45

> <PUBCHEM_ATOM_DEF_STEREO_COUNT>
15

> <PUBCHEM_ATOM_UDEF_STEREO_COUNT>
0

> <PUBCHEM_BOND_DEF_STEREO_COUNT>
0

> <PUBCHEM_BOND_UDEF_STEREO_COUNT>
0

> <PUBCHEM_ISOTOPIC_ATOM_COUNT>
0

> <PUBCHEM_COMPONENT_COUNT>
1

> <PUBCHEM_CACTVS_TAUTO_COUNT>
1

> <PUBCHEM_CONFORMER_ID>
02A7E46600000004

> <PUBCHEM_MMFF94_ENERGY>
184.1184

> <PUBCHEM_FEATURE_SELFOVERLAP>
106.696

> <PUBCHEM_SHAPE_FINGERPRINT>
10673678 19 18413110579978057937
11445158 3 18055621824675211895
11505856 67 17179139894833335012
11621639 208 17756980112764640733
11763715 3 17333396513817517438
12128747 34 16661474109464816064
1361 2 18412257333290542830
13782708 43 17752491954203867515
14117953 113 18413113836813494822
14150023 79 18334857203975105194
14190465 44 17985251109808847336
14295345 954 18335422408506723726
14705955 166 16370991988954971604
14849402 71 18340771416933496806
15064981 194 17829896791109046654
15082195 135 18270386287075712299
15131766 46 18272368681472792409
15198563 99 17332249105278822310
15200665 1 18196929096366598834
15328829 1 17846777412757871945
15840311 113 18193002522302850393
15890870 6 18411141376787534540
17899979 129 18410864239405415652
19319366 153 18202277004885722035
21033648 144 18334013904346925655
21033648 29 17167864136939578265
21716022 299 14619136745528413324
21792964 463 18129398024523782585
23522609 53 17703524199106931297
23559900 14 17605294903643542403
255183 451 17841719513215295782
27425 322 18271529818419164428
394071 54 18333733498706698069
397830 11 18186811292274192099
4058900 60 18413111683848255018
4093350 32 18336826390966889001
44880568 143 18118671138339949869
46194498 28 18265891359029445663

> <PUBCHEM_SHAPE_MULTIPOLES>
873.26
17.62
6.06
1.9
17.86
3.48
0.07
-16.62
-1.92
-12.64
-1.42
2.54
0.2
-1.37

> <PUBCHEM_SHAPE_SELFOVERLAP>
1860.875

> <PUBCHEM_SHAPE_VOLUME>
476.1

> <PUBCHEM_COORDINATE_TYPE>
2
5
10

$$$$
