44557415
  -OEChem-08282001013D

101106  0     1  0  0  0  0  0999 V2000
   -8.0653   -1.2965    0.4941 O   0  0  0  0  0  0  0  0  0  0  0  0
   -6.9389    1.1616   -0.4621 O   0  0  0  0  0  0  0  0  0  0  0  0
    2.6874   -0.0157   -0.1916 O   0  0  0  0  0  0  0  0  0  0  0  0
    4.5618    1.3138   -0.4274 O   0  0  0  0  0  0  0  0  0  0  0  0
    4.1352   -1.7561   -0.7564 O   0  0  0  0  0  0  0  0  0  0  0  0
    2.0814   -1.3370    2.2363 O   0  0  0  0  0  0  0  0  0  0  0  0
    2.4196   -4.2554    2.0144 O   0  0  0  0  0  0  0  0  0  0  0  0
    5.0166   -4.8927    0.9165 O   0  0  0  0  0  0  0  0  0  0  0  0
    6.4381   -2.3357   -2.1406 O   0  0  0  0  0  0  0  0  0  0  0  0
   -1.5595    0.1239   -0.6504 C   0  0  2  0  0  0  0  0  0  0  0  0
   -3.9590    0.0003    0.5911 C   0  0  2  0  0  0  0  0  0  0  0  0
   -2.7105    0.8666    0.1262 C   0  0  1  0  0  0  0  0  0  0  0  0
   -4.4826   -0.7971   -0.6573 C   0  0  2  0  0  0  0  0  0  0  0  0
   -0.5060    1.2426   -1.1793 C   0  0  1  0  0  0  0  0  0  0  0  0
   -2.2062   -0.6729   -1.8114 C   0  0  0  0  0  0  0  0  0  0  0  0
   -5.8042   -1.6306   -0.4269 C   0  0  0  0  0  0  0  0  0  0  0  0
   -3.3609   -1.5814   -1.3702 C   0  0  0  0  0  0  0  0  0  0  0  0
   -5.0927    0.9881    1.0661 C   0  0  0  0  0  0  0  0  0  0  0  0
    0.0850    2.0155    0.0274 C   0  0  0  0  0  0  0  0  0  0  0  0
    0.6225    0.5778   -2.0194 C   0  0  0  0  0  0  0  0  0  0  0  0
   -6.6873   -0.9672    0.6761 C   0  0  1  0  0  0  0  0  0  0  0  0
   -6.5314    0.5499    0.7626 C   0  0  2  0  0  0  0  0  0  0  0  0
   -0.8006   -0.8984    0.2559 C   0  0  0  0  0  0  0  0  0  0  0  0
   -2.1217    1.7903    1.1668 C   0  0  0  0  0  0  0  0  0  0  0  0
   -3.6113   -0.9110    1.7922 C   0  0  0  0  0  0  0  0  0  0  0  0
    2.3758    2.1529   -1.0507 C   0  0  1  0  0  0  0  0  0  0  0  0
    1.3918    2.3975    0.0957 C   0  0  0  0  0  0  0  0  0  0  0  0
    1.7684    1.5329   -2.3281 C   0  0  0  0  0  0  0  0  0  0  0  0
   -1.1807    2.3103   -2.0988 C   0  0  0  0  0  0  0  0  0  0  0  0
   -0.8771    2.2881    1.1035 C   0  0  0  0  0  0  0  0  0  0  0  0
   -5.5420   -3.0949   -0.0013 C   0  0  0  0  0  0  0  0  0  0  0  0
   -6.5689   -1.7213   -1.7776 C   0  0  0  0  0  0  0  0  0  0  0  0
    1.9890    3.1273    1.3210 C   0  0  2  0  0  0  0  0  0  0  0  0
    3.1360    3.4405   -1.4643 C   0  0  0  0  0  0  0  0  0  0  0  0
    3.2912    3.9191    1.0167 C   0  0  1  0  0  0  0  0  0  0  0  0
    3.2265    4.5191   -0.3846 C   0  0  0  0  0  0  0  0  0  0  0  0
    3.3571    1.1240   -0.5258 C   0  0  0  0  0  0  0  0  0  0  0  0
    2.2260    2.1489    2.4842 C   0  0  0  0  0  0  0  0  0  0  0  0
    3.5333    5.0285    2.0472 C   0  0  0  0  0  0  0  0  0  0  0  0
    3.4961   -1.0744    0.3204 C   0  0  2  0  0  0  0  0  0  0  0  0
    2.5872   -2.0287    1.0948 C   0  0  1  0  0  0  0  0  0  0  0  0
    3.3482   -3.2734    1.5518 C   0  0  2  0  0  0  0  0  0  0  0  0
    4.9825   -2.8157   -0.3082 C   0  0  1  0  0  0  0  0  0  0  0  0
    4.1497   -3.8850    0.4026 C   0  0  1  0  0  0  0  0  0  0  0  0
    5.7001   -3.3788   -1.5308 C   0  0  0  0  0  0  0  0  0  0  0  0
   -3.1713    1.5466   -0.6035 H   0  0  0  0  0  0  0  0  0  0  0  0
   -4.7636   -0.0147   -1.3814 H   0  0  0  0  0  0  0  0  0  0  0  0
   -1.4550   -1.2911   -2.3175 H   0  0  0  0  0  0  0  0  0  0  0  0
   -2.5997    0.0128   -2.5696 H   0  0  0  0  0  0  0  0  0  0  0  0
   -2.9803   -2.3876   -0.7363 H   0  0  0  0  0  0  0  0  0  0  0  0
   -3.7563   -2.0660   -2.2699 H   0  0  0  0  0  0  0  0  0  0  0  0
   -4.9375    1.9805    0.6236 H   0  0  0  0  0  0  0  0  0  0  0  0
   -5.0007    1.1348    2.1507 H   0  0  0  0  0  0  0  0  0  0  0  0
    0.2049    0.2528   -2.9824 H   0  0  0  0  0  0  0  0  0  0  0  0
    0.9989   -0.3412   -1.5783 H   0  0  0  0  0  0  0  0  0  0  0  0
   -6.4232   -1.3865    1.6525 H   0  0  0  0  0  0  0  0  0  0  0  0
   -7.2054    0.9469    1.5310 H   0  0  0  0  0  0  0  0  0  0  0  0
   -0.2725   -0.4268    1.0874 H   0  0  0  0  0  0  0  0  0  0  0  0
   -0.0772   -1.4695   -0.3278 H   0  0  0  0  0  0  0  0  0  0  0  0
   -1.4453   -1.6597    0.6833 H   0  0  0  0  0  0  0  0  0  0  0  0
   -2.7460    2.0940    2.0024 H   0  0  0  0  0  0  0  0  0  0  0  0
   -3.2306   -1.8862    1.4894 H   0  0  0  0  0  0  0  0  0  0  0  0
   -4.4803   -1.1173    2.4233 H   0  0  0  0  0  0  0  0  0  0  0  0
   -2.8699   -0.4510    2.4533 H   0  0  0  0  0  0  0  0  0  0  0  0
    1.4077    2.3102   -3.0109 H   0  0  0  0  0  0  0  0  0  0  0  0
    2.5363    0.9905   -2.8970 H   0  0  0  0  0  0  0  0  0  0  0  0
   -2.0023    2.8455   -1.6159 H   0  0  0  0  0  0  0  0  0  0  0  0
   -0.4761    3.0957   -2.3945 H   0  0  0  0  0  0  0  0  0  0  0  0
   -1.5661    1.8659   -3.0214 H   0  0  0  0  0  0  0  0  0  0  0  0
   -0.5800    2.9358    1.9210 H   0  0  0  0  0  0  0  0  0  0  0  0
   -4.9978   -3.6540   -0.7696 H   0  0  0  0  0  0  0  0  0  0  0  0
   -4.9708   -3.1586    0.9278 H   0  0  0  0  0  0  0  0  0  0  0  0
   -6.4864   -3.6263    0.1677 H   0  0  0  0  0  0  0  0  0  0  0  0
   -6.8604   -0.7338   -2.1475 H   0  0  0  0  0  0  0  0  0  0  0  0
   -5.9583   -2.1927   -2.5547 H   0  0  0  0  0  0  0  0  0  0  0  0
   -7.4800   -2.3238   -1.6889 H   0  0  0  0  0  0  0  0  0  0  0  0
    1.2553    3.8746    1.6488 H   0  0  0  0  0  0  0  0  0  0  0  0
    4.1480    3.2034   -1.8167 H   0  0  0  0  0  0  0  0  0  0  0  0
    2.6481    3.9145   -2.3266 H   0  0  0  0  0  0  0  0  0  0  0  0
    4.1593    3.2525    1.0740 H   0  0  0  0  0  0  0  0  0  0  0  0
    4.1045    5.1466   -0.5809 H   0  0  0  0  0  0  0  0  0  0  0  0
    2.3533    5.1809   -0.4609 H   0  0  0  0  0  0  0  0  0  0  0  0
   -8.5641   -0.8953    1.2260 H   0  0  0  0  0  0  0  0  0  0  0  0
   -6.9201    2.1251   -0.3326 H   0  0  0  0  0  0  0  0  0  0  0  0
    2.4501    2.6908    3.4085 H   0  0  0  0  0  0  0  0  0  0  0  0
    1.3498    1.5251    2.6853 H   0  0  0  0  0  0  0  0  0  0  0  0
    3.0690    1.4802    2.2836 H   0  0  0  0  0  0  0  0  0  0  0  0
    4.4526    5.5771    1.8148 H   0  0  0  0  0  0  0  0  0  0  0  0
    2.7076    5.7480    2.0596 H   0  0  0  0  0  0  0  0  0  0  0  0
    3.6432    4.6193    3.0557 H   0  0  0  0  0  0  0  0  0  0  0  0
    4.2533   -0.6559    0.9983 H   0  0  0  0  0  0  0  0  0  0  0  0
    1.7297   -2.3245    0.4853 H   0  0  0  0  0  0  0  0  0  0  0  0
    3.9992   -3.0438    2.4035 H   0  0  0  0  0  0  0  0  0  0  0  0
    5.7409   -2.3939    0.3654 H   0  0  0  0  0  0  0  0  0  0  0  0
    3.4669   -4.3708   -0.3052 H   0  0  0  0  0  0  0  0  0  0  0  0
    2.8367   -1.0754    2.7900 H   0  0  0  0  0  0  0  0  0  0  0  0
    6.3894   -4.1833   -1.2569 H   0  0  0  0  0  0  0  0  0  0  0  0
    4.9810   -3.7529   -2.2672 H   0  0  0  0  0  0  0  0  0  0  0  0
    1.8146   -4.4681    1.2835 H   0  0  0  0  0  0  0  0  0  0  0  0
    5.6355   -4.4694    1.5356 H   0  0  0  0  0  0  0  0  0  0  0  0
    6.8828   -2.7148   -2.9177 H   0  0  0  0  0  0  0  0  0  0  0  0
  1 21  1  0  0  0  0
  1 83  1  0  0  0  0
  2 22  1  0  0  0  0
  2 84  1  0  0  0  0
  3 37  1  0  0  0  0
  3 40  1  0  0  0  0
  4 37  2  0  0  0  0
  5 40  1  0  0  0  0
  5 43  1  0  0  0  0
  6 41  1  0  0  0  0
  6 96  1  0  0  0  0
  7 42  1  0  0  0  0
  7 99  1  0  0  0  0
  8 44  1  0  0  0  0
  8100  1  0  0  0  0
  9 45  1  0  0  0  0
  9101  1  0  0  0  0
 10 12  1  0  0  0  0
 10 14  1  0  0  0  0
 10 15  1  0  0  0  0
 10 23  1  0  0  0  0
 11 12  1  0  0  0  0
 11 13  1  0  0  0  0
 11 18  1  0  0  0  0
 11 25  1  0  0  0  0
 12 24  1  0  0  0  0
 12 46  1  0  0  0  0
 13 16  1  0  0  0  0
 13 17  1  0  0  0  0
 13 47  1  0  0  0  0
 14 19  1  0  0  0  0
 14 20  1  0  0  0  0
 14 29  1  0  0  0  0
 15 17  1  0  0  0  0
 15 48  1  0  0  0  0
 15 49  1  0  0  0  0
 16 21  1  0  0  0  0
 16 31  1  0  0  0  0
 16 32  1  0  0  0  0
 17 50  1  0  0  0  0
 17 51  1  0  0  0  0
 18 22  1  0  0  0  0
 18 52  1  0  0  0  0
 18 53  1  0  0  0  0
 19 27  2  0  0  0  0
 19 30  1  0  0  0  0
 20 28  1  0  0  0  0
 20 54  1  0  0  0  0
 20 55  1  0  0  0  0
 21 22  1  0  0  0  0
 21 56  1  0  0  0  0
 22 57  1  0  0  0  0
 23 58  1  0  0  0  0
 23 59  1  0  0  0  0
 23 60  1  0  0  0  0
 24 30  2  0  0  0  0
 24 61  1  0  0  0  0
 25 62  1  0  0  0  0
 25 63  1  0  0  0  0
 25 64  1  0  0  0  0
 26 27  1  0  0  0  0
 26 28  1  0  0  0  0
 26 34  1  0  0  0  0
 26 37  1  0  0  0  0
 27 33  1  0  0  0  0
 28 65  1  0  0  0  0
 28 66  1  0  0  0  0
 29 67  1  0  0  0  0
 29 68  1  0  0  0  0
 29 69  1  0  0  0  0
 30 70  1  0  0  0  0
 31 71  1  0  0  0  0
 31 72  1  0  0  0  0
 31 73  1  0  0  0  0
 32 74  1  0  0  0  0
 32 75  1  0  0  0  0
 32 76  1  0  0  0  0
 33 35  1  0  0  0  0
 33 38  1  0  0  0  0
 33 77  1  0  0  0  0
 34 36  1  0  0  0  0
 34 78  1  0  0  0  0
 34 79  1  0  0  0  0
 35 36  1  0  0  0  0
 35 39  1  0  0  0  0
 35 80  1  0  0  0  0
 36 81  1  0  0  0  0
 36 82  1  0  0  0  0
 38 85  1  0  0  0  0
 38 86  1  0  0  0  0
 38 87  1  0  0  0  0
 39 88  1  0  0  0  0
 39 89  1  0  0  0  0
 39 90  1  0  0  0  0
 40 41  1  0  0  0  0
 40 91  1  0  0  0  0
 41 42  1  0  0  0  0
 41 92  1  0  0  0  0
 42 44  1  0  0  0  0
 42 93  1  0  0  0  0
 43 44  1  0  0  0  0
 43 45  1  0  0  0  0
 43 94  1  0  0  0  0
 44 95  1  0  0  0  0
 45 97  1  0  0  0  0
 45 98  1  0  0  0  0
M  END
> <PUBCHEM_COMPOUND_CID>
44557415

> <PUBCHEM_CONFORMER_RMSD>
1

> <PUBCHEM_CONFORMER_DIVERSEORDER>
1
19
4
18
8
17
20
13
7
24
15
26
2
6
3
28
27
11
14
9
5
10
25
23
16
12
22
21

> <PUBCHEM_MMFF94_PARTIAL_CHARGES>
34
1 -0.68
100 0.4
101 0.4
12 0.14
14 0.14
19 -0.14
2 -0.68
21 0.28
22 0.28
24 -0.29
26 0.2
27 -0.28
3 -0.43
30 -0.15
33 0.14
37 0.66
4 -0.57
40 0.56
41 0.28
42 0.28
43 0.28
44 0.28
45 0.28
5 -0.56
6 -0.68
61 0.15
7 -0.68
70 0.15
8 -0.68
83 0.4
84 0.4
9 -0.68
96 0.4
99 0.4

> <PUBCHEM_EFFECTIVE_ROTOR_COUNT>
7.6

> <PUBCHEM_PHARMACOPHORE_FEATURES>
21
1 1 acceptor
1 1 donor
1 2 acceptor
1 2 donor
1 4 acceptor
1 5 acceptor
1 6 acceptor
1 6 donor
1 7 acceptor
1 7 donor
1 8 acceptor
1 8 donor
1 9 acceptor
1 9 donor
3 16 31 32 hydrophobe
6 10 11 12 13 15 17 rings
6 10 12 14 19 24 30 rings
6 11 13 16 18 21 22 rings
6 14 19 20 26 27 28 rings
6 26 27 33 34 35 36 rings
6 5 40 41 42 43 44 rings

> <PUBCHEM_HEAVY_ATOM_COUNT>
45

> <PUBCHEM_ATOM_DEF_STEREO_COUNT>
15

> <PUBCHEM_ATOM_UDEF_STEREO_COUNT>
0

> <PUBCHEM_BOND_DEF_STEREO_COUNT>
0

> <PUBCHEM_BOND_UDEF_STEREO_COUNT>
0

> <PUBCHEM_ISOTOPIC_ATOM_COUNT>
0

> <PUBCHEM_COMPONENT_COUNT>
1

> <PUBCHEM_CACTVS_TAUTO_COUNT>
1

> <PUBCHEM_CONFORMER_ID>
02A7E46700000001

> <PUBCHEM_MMFF94_ENERGY>
185.3789

> <PUBCHEM_FEATURE_SELFOVERLAP>
106.664

> <PUBCHEM_SHAPE_FINGERPRINT>
11093857 51 17752789067208458420
11399939 17 17774145941874214206
11607047 141 18343593945244643939
11607047 403 18337379484556513970
117089 54 18055649321335974086
12107183 9 18197790903593685641
12633046 712 18265886969436219756
131258 38 18342166808562589686
131258 43 18129673994021384078
13165053 137 14438928670973903955
13533116 47 18410014372878209781
13690498 29 17969225521015945543
13692114 37 17906448080774919184
13782708 43 18335136497466580295
14068700 675 18269557148092254354
14705955 166 15983698814827636786
14955137 171 18271811159698065270
15001296 14 18336543923478894711
15392192 104 17533228707096902125
15448158 6 18262238803066831542
15911013 46 18408323280586426042
15927050 60 18053662752721058750
19315092 285 18272934946607501777
19319366 153 18125156288920079516
20511986 3 18129094705548787949
20775438 99 18191290783718146635
20775530 9 18264757771416057694
208703 8 18270687467531357998
21703447 108 18410845586025352360
23559900 14 17895201017067297763
25222932 49 17841711013400592351
32027 91 18337381661360685639
4073 2 18120940761818896449
5104073 3 18059587935853547321
57816373 69 18200590289724775839
6086070 43 18269553832699904453
6697151 62 18197757943503050733
70251023 43 18335420145032071704
77296 10 18409451410425047521
86090 222 18040435508107194154
9962374 69 18201993352761902871

> <PUBCHEM_SHAPE_MULTIPOLES>
873.26
15.94
6.13
2.18
24.18
1.09
-0.09
11.66
-0.69
-13.62
2.07
-1.28
-0.27
-0.11

> <PUBCHEM_SHAPE_SELFOVERLAP>
1862.757

> <PUBCHEM_SHAPE_VOLUME>
475.3

> <PUBCHEM_COORDINATE_TYPE>
2
5
10

$$$$
