22296544
  -OEChem-11202009383D

 75 78  0     1  0  0  0  0  0999 V2000
    8.1443   -0.4432   -0.8650 O   0  0  0  0  0  0  0  0  0  0  0  0
   -0.4157   -0.0889    0.4072 C   0  0  1  0  0  0  0  0  0  0  0  0
    0.3981    1.0449   -0.2565 C   0  0  1  0  0  0  0  0  0  0  0  0
   -1.8415    0.3431   -0.0064 C   0  0  2  0  0  0  0  0  0  0  0  0
   -0.3510    2.3025    0.1909 C   0  0  0  0  0  0  0  0  0  0  0  0
    0.0759   -1.3969   -0.2149 C   0  0  0  0  0  0  0  0  0  0  0  0
   -1.8313    1.8754    0.2026 C   0  0  0  0  0  0  0  0  0  0  0  0
    1.8865    0.9061   -0.0569 C   0  0  0  0  0  0  0  0  0  0  0  0
    2.4498   -0.3221    0.0563 C   0  0  0  0  0  0  0  0  0  0  0  0
   -2.9940   -0.3465    0.7094 C   0  0  1  0  0  0  0  0  0  0  0  0
    1.5878   -1.5916    0.0198 C   0  0  0  0  0  0  0  0  0  0  0  0
    3.9761   -0.5095    0.2618 C   0  0  2  0  0  0  0  0  0  0  0  0
   -0.2709   -0.1496    1.9504 C   0  0  0  0  0  0  0  0  0  0  0  0
    2.6795    2.1822   -0.0666 C   0  0  0  0  0  0  0  0  0  0  0  0
    4.7594    0.8011    0.1055 C   0  0  0  0  0  0  0  0  0  0  0  0
    4.5316   -1.5202   -0.7829 C   0  0  0  0  0  0  0  0  0  0  0  0
   -4.3420    0.2265    0.2213 C   0  0  0  0  0  0  0  0  0  0  0  0
    4.1578    1.9922   -0.0367 C   0  0  0  0  0  0  0  0  0  0  0  0
   -2.9078   -1.8629    0.5055 C   0  0  0  0  0  0  0  0  0  0  0  0
    4.1992   -1.0410    1.6972 C   0  0  0  0  0  0  0  0  0  0  0  0
    6.2662    0.7070    0.0783 C   0  0  0  0  0  0  0  0  0  0  0  0
    6.0569   -1.6452   -0.7937 C   0  0  0  0  0  0  0  0  0  0  0  0
    6.7331   -0.2903   -0.9771 C   0  0  2  0  0  0  0  0  0  0  0  0
   -5.5632   -0.4614    0.8438 C   0  0  0  0  0  0  0  0  0  0  0  0
   -6.9170    0.1195    0.3693 C   0  0  1  0  0  0  0  0  0  0  0  0
   -7.0693    0.1609   -1.1787 C   0  0  0  0  0  0  0  0  0  0  0  0
   -8.0510   -0.6398    1.0733 C   0  0  0  0  0  0  0  0  0  0  0  0
   -7.0204   -1.2413   -1.7972 C   0  0  0  0  0  0  0  0  0  0  0  0
   -8.3270    0.8892   -1.6602 C   0  0  0  0  0  0  0  0  0  0  0  0
    0.2603    0.9939   -1.3502 H   0  0  0  0  0  0  0  0  0  0  0  0
   -1.9546    0.1661   -1.0874 H   0  0  0  0  0  0  0  0  0  0  0  0
   -0.0410    2.6261    1.1911 H   0  0  0  0  0  0  0  0  0  0  0  0
   -0.1861    3.1421   -0.4925 H   0  0  0  0  0  0  0  0  0  0  0  0
   -0.1099   -1.3866   -1.2975 H   0  0  0  0  0  0  0  0  0  0  0  0
   -0.4159   -2.2907    0.1660 H   0  0  0  0  0  0  0  0  0  0  0  0
   -2.2868    2.1717    1.1543 H   0  0  0  0  0  0  0  0  0  0  0  0
   -2.3844    2.3765   -0.5998 H   0  0  0  0  0  0  0  0  0  0  0  0
   -2.9432   -0.1519    1.7880 H   0  0  0  0  0  0  0  0  0  0  0  0
    1.7102   -2.1192    0.9728 H   0  0  0  0  0  0  0  0  0  0  0  0
    1.9489   -2.2659   -0.7639 H   0  0  0  0  0  0  0  0  0  0  0  0
   -0.7201    0.7173    2.4456 H   0  0  0  0  0  0  0  0  0  0  0  0
   -0.7511   -1.0415    2.3644 H   0  0  0  0  0  0  0  0  0  0  0  0
    0.7743   -0.1813    2.2727 H   0  0  0  0  0  0  0  0  0  0  0  0
    2.3955    2.7983    0.7942 H   0  0  0  0  0  0  0  0  0  0  0  0
    2.4317    2.7458   -0.9743 H   0  0  0  0  0  0  0  0  0  0  0  0
    4.1246   -2.5227   -0.6025 H   0  0  0  0  0  0  0  0  0  0  0  0
    4.2022   -1.2264   -1.7895 H   0  0  0  0  0  0  0  0  0  0  0  0
   -4.3691    0.1169   -0.8680 H   0  0  0  0  0  0  0  0  0  0  0  0
   -4.4034    1.2984    0.4401 H   0  0  0  0  0  0  0  0  0  0  0  0
    4.7586    2.8918   -0.1446 H   0  0  0  0  0  0  0  0  0  0  0  0
   -2.1243   -2.3014    1.1244 H   0  0  0  0  0  0  0  0  0  0  0  0
   -3.8039   -2.3883    0.8400 H   0  0  0  0  0  0  0  0  0  0  0  0
   -2.7484   -2.1267   -0.5448 H   0  0  0  0  0  0  0  0  0  0  0  0
    3.7435   -0.3764    2.4417 H   0  0  0  0  0  0  0  0  0  0  0  0
    5.2595   -1.1320    1.9538 H   0  0  0  0  0  0  0  0  0  0  0  0
    3.7646   -2.0374    1.8331 H   0  0  0  0  0  0  0  0  0  0  0  0
    6.7305    1.6807   -0.1256 H   0  0  0  0  0  0  0  0  0  0  0  0
    6.6430    0.4188    1.0673 H   0  0  0  0  0  0  0  0  0  0  0  0
    6.4093   -2.1191    0.1310 H   0  0  0  0  0  0  0  0  0  0  0  0
    6.3655   -2.3216   -1.6005 H   0  0  0  0  0  0  0  0  0  0  0  0
    6.5179    0.1025   -1.9785 H   0  0  0  0  0  0  0  0  0  0  0  0
   -5.5708   -1.5310    0.6217 H   0  0  0  0  0  0  0  0  0  0  0  0
   -5.4987   -0.3704    1.9358 H   0  0  0  0  0  0  0  0  0  0  0  0
   -6.9609    1.1592    0.7224 H   0  0  0  0  0  0  0  0  0  0  0  0
   -6.2338    0.7365   -1.5926 H   0  0  0  0  0  0  0  0  0  0  0  0
    8.4248   -1.0791   -1.5451 H   0  0  0  0  0  0  0  0  0  0  0  0
   -7.9405   -0.5666    2.1611 H   0  0  0  0  0  0  0  0  0  0  0  0
   -9.0297   -0.2213    0.8215 H   0  0  0  0  0  0  0  0  0  0  0  0
   -8.0538   -1.7032    0.8153 H   0  0  0  0  0  0  0  0  0  0  0  0
   -7.8595   -1.8627   -1.4697 H   0  0  0  0  0  0  0  0  0  0  0  0
   -6.0890   -1.7616   -1.5573 H   0  0  0  0  0  0  0  0  0  0  0  0
   -7.0739   -1.1742   -2.8899 H   0  0  0  0  0  0  0  0  0  0  0  0
   -9.2384    0.3401   -1.4041 H   0  0  0  0  0  0  0  0  0  0  0  0
   -8.3913    1.8872   -1.2145 H   0  0  0  0  0  0  0  0  0  0  0  0
   -8.3096    1.0107   -2.7489 H   0  0  0  0  0  0  0  0  0  0  0  0
  1 23  1  0  0  0  0
  1 66  1  0  0  0  0
  2  3  1  0  0  0  0
  2  4  1  0  0  0  0
  2  6  1  0  0  0  0
  2 13  1  0  0  0  0
  3  5  1  0  0  0  0
  3  8  1  0  0  0  0
  3 30  1  0  0  0  0
  4  7  1  0  0  0  0
  4 10  1  0  0  0  0
  4 31  1  0  0  0  0
  5  7  1  0  0  0  0
  5 32  1  0  0  0  0
  5 33  1  0  0  0  0
  6 11  1  0  0  0  0
  6 34  1  0  0  0  0
  6 35  1  0  0  0  0
  7 36  1  0  0  0  0
  7 37  1  0  0  0  0
  8  9  2  0  0  0  0
  8 14  1  0  0  0  0
  9 11  1  0  0  0  0
  9 12  1  0  0  0  0
 10 17  1  0  0  0  0
 10 19  1  0  0  0  0
 10 38  1  0  0  0  0
 11 39  1  0  0  0  0
 11 40  1  0  0  0  0
 12 15  1  0  0  0  0
 12 16  1  0  0  0  0
 12 20  1  0  0  0  0
 13 41  1  0  0  0  0
 13 42  1  0  0  0  0
 13 43  1  0  0  0  0
 14 18  1  0  0  0  0
 14 44  1  0  0  0  0
 14 45  1  0  0  0  0
 15 18  2  0  0  0  0
 15 21  1  0  0  0  0
 16 22  1  0  0  0  0
 16 46  1  0  0  0  0
 16 47  1  0  0  0  0
 17 24  1  0  0  0  0
 17 48  1  0  0  0  0
 17 49  1  0  0  0  0
 18 50  1  0  0  0  0
 19 51  1  0  0  0  0
 19 52  1  0  0  0  0
 19 53  1  0  0  0  0
 20 54  1  0  0  0  0
 20 55  1  0  0  0  0
 20 56  1  0  0  0  0
 21 23  1  0  0  0  0
 21 57  1  0  0  0  0
 21 58  1  0  0  0  0
 22 23  1  0  0  0  0
 22 59  1  0  0  0  0
 22 60  1  0  0  0  0
 23 61  1  0  0  0  0
 24 25  1  0  0  0  0
 24 62  1  0  0  0  0
 24 63  1  0  0  0  0
 25 26  1  0  0  0  0
 25 27  1  0  0  0  0
 25 64  1  0  0  0  0
 26 28  1  0  0  0  0
 26 29  1  0  0  0  0
 26 65  1  0  0  0  0
 27 67  1  0  0  0  0
 27 68  1  0  0  0  0
 27 69  1  0  0  0  0
 28 70  1  0  0  0  0
 28 71  1  0  0  0  0
 28 72  1  0  0  0  0
 29 73  1  0  0  0  0
 29 74  1  0  0  0  0
 29 75  1  0  0  0  0
M  END
> <PUBCHEM_COMPOUND_CID>
22296544

> <PUBCHEM_CONFORMER_RMSD>
0.8

> <PUBCHEM_CONFORMER_DIVERSEORDER>
2
4
17
19
16
7
9
13
18
12
5
10
1
11
8
15
14
3
6

> <PUBCHEM_MMFF94_PARTIAL_CHARGES>
13
1 -0.68
11 0.14
12 0.28
14 0.28
15 -0.28
18 -0.29
21 0.14
23 0.28
3 0.14
50 0.15
66 0.4
8 -0.28
9 -0.28

> <PUBCHEM_EFFECTIVE_ROTOR_COUNT>
7

> <PUBCHEM_PHARMACOPHORE_FEATURES>
10
1 1 acceptor
1 1 donor
1 19 hydrophobe
1 27 hydrophobe
3 26 28 29 hydrophobe
5 10 17 24 25 26 hydrophobe
5 2 3 4 5 7 rings
6 12 15 16 21 22 23 rings
6 2 3 6 8 9 11 rings
6 8 9 12 14 15 18 rings

> <PUBCHEM_HEAVY_ATOM_COUNT>
29

> <PUBCHEM_ATOM_DEF_STEREO_COUNT>
7

> <PUBCHEM_ATOM_UDEF_STEREO_COUNT>
0

> <PUBCHEM_BOND_DEF_STEREO_COUNT>
0

> <PUBCHEM_BOND_UDEF_STEREO_COUNT>
0

> <PUBCHEM_ISOTOPIC_ATOM_COUNT>
0

> <PUBCHEM_COMPONENT_COUNT>
1

> <PUBCHEM_CACTVS_TAUTO_COUNT>
1

> <PUBCHEM_CONFORMER_ID>
015437E000000002

> <PUBCHEM_MMFF94_ENERGY>
78.5562

> <PUBCHEM_FEATURE_SELFOVERLAP>
50.864

> <PUBCHEM_SHAPE_FINGERPRINT>
10100884 174 9798530423208148253
10299344 5 17632579349174350519
11135926 11 18202002119375521351
11181472 205 16009303198011850116
12011746 2 18259992574173362314
12166972 35 17775567545905024912
12236239 1 17704354377292600113
12516196 113 18131068247110272441
12838862 33 18337378418718340904
13383668 254 14780133929368550364
13533116 47 18060702775560336506
14068700 675 16774079583717359257
14170010 4 18411702101900001360
14251764 18 17847064384717533141
15131766 46 16083643580890950068
15142383 8 17603298258740212060
15183329 4 18410568488379373887
15198563 99 18188490164456800029
15419008 47 17749103396747857285
15439362 3 16807875393127840780
15849732 13 18411983572491918447
16087824 20 18336548193578765773
16728433 281 17387402446858641397
20028762 73 18131350791191377454
2026 5 17772762572396679142
21267235 1 18411145727003368640
21315759 40 17132121225137888339
21792961 116 17968096391372849378
221357 26 18411703167120514544
22224240 67 17132112442267365342
23559900 14 18336266841942050136
23576562 1 18115581703796268839
249057 25 17131566010674048369
249057 3 18410857689306125654
255183 451 17985273967694004998
3004659 81 18260830409985573136
3009799 131 18040715870497119857
335352 9 18411423929647354246
350125 39 18411424999089299744
3633792 109 18341895165124650889
4073 2 17822862016297571123
4325135 7 18131914853509010471
4340502 62 13830134983384540140
5104073 3 18342175506594012456
59755656 215 18259983755919883174
6009941 240 17676491670234338195
6081469 158 17603866668288306166

> <PUBCHEM_SHAPE_MULTIPOLES>
590.94
22.81
1.96
1.31
23.81
0.53
-0.01
-3.72
7.98
-1.3
0.12
1.42
-0.32
0.64

> <PUBCHEM_SHAPE_SELFOVERLAP>
1230.291

> <PUBCHEM_SHAPE_VOLUME>
337.2

> <PUBCHEM_COORDINATE_TYPE>
2
5
10

$$$$
