595368
  -OEChem-11202009423D

 37 37  0     0  0  0  0  0  0999 V2000
    0.0258   -2.1682    0.0003 O   0  5  0  0  0  0  0  0  0  0  0  0
   -0.0601    3.2852   -0.0001 N   0  3  0  0  0  0  0  0  0  0  0  0
   -0.0774    4.3774   -0.0002 N   0  0  0  0  0  0  0  0  0  0  0  0
   -2.5316   -0.9187    0.0017 C   0  0  0  0  0  0  0  0  0  0  0  0
    2.5434   -0.8382   -0.0019 C   0  0  0  0  0  0  0  0  0  0  0  0
   -1.1789   -0.1874    0.0009 C   0  0  0  0  0  0  0  0  0  0  0  0
    1.2028   -0.1673   -0.0009 C   0  0  0  0  0  0  0  0  0  0  0  0
    0.0061   -0.8839    0.0000 C   0  0  0  0  0  0  0  0  0  0  0  0
   -3.6800    0.1134    0.0027 C   0  0  0  0  0  0  0  0  0  0  0  0
   -2.6431   -1.8035    1.2622 C   0  0  0  0  0  0  0  0  0  0  0  0
   -2.7457   -1.8385   -1.2216 C   0  0  0  0  0  0  0  0  0  0  0  0
    2.8210   -1.7683    1.2213 C   0  0  0  0  0  0  0  0  0  0  0  0
    2.7175   -1.7360   -1.2625 C   0  0  0  0  0  0  0  0  0  0  0  0
    3.6930    0.2125   -0.0024 C   0  0  0  0  0  0  0  0  0  0  0  0
   -1.2350    1.1889    0.0011 C   0  0  0  0  0  0  0  0  0  0  0  0
    1.1806    1.2273   -0.0008 C   0  0  0  0  0  0  0  0  0  0  0  0
   -0.0383    1.9055    0.0002 C   0  0  0  0  0  0  0  0  0  0  0  0
   -4.6472   -0.4078    0.0143 H   0  0  0  0  0  0  0  0  0  0  0  0
   -3.6881    0.7425    0.9013 H   0  0  0  0  0  0  0  0  0  0  0  0
   -3.6983    0.7340   -0.9016 H   0  0  0  0  0  0  0  0  0  0  0  0
   -2.3615   -1.2471    2.1644 H   0  0  0  0  0  0  0  0  0  0  0  0
   -3.6804   -2.1335    1.4029 H   0  0  0  0  0  0  0  0  0  0  0  0
   -2.0489   -2.7201    1.2330 H   0  0  0  0  0  0  0  0  0  0  0  0
   -3.7755   -2.2153   -1.2507 H   0  0  0  0  0  0  0  0  0  0  0  0
   -2.5711   -1.2887   -2.1542 H   0  0  0  0  0  0  0  0  0  0  0  0
   -2.1012   -2.7210   -1.2374 H   0  0  0  0  0  0  0  0  0  0  0  0
    3.8595   -2.1211    1.2201 H   0  0  0  0  0  0  0  0  0  0  0  0
    2.6561   -1.2248    2.1592 H   0  0  0  0  0  0  0  0  0  0  0  0
    2.1920   -2.6617    1.2459 H   0  0  0  0  0  0  0  0  0  0  0  0
    2.4476   -1.1876   -2.1731 H   0  0  0  0  0  0  0  0  0  0  0  0
    3.7646   -2.0457   -1.3713 H   0  0  0  0  0  0  0  0  0  0  0  0
    2.1348   -2.6603   -1.2419 H   0  0  0  0  0  0  0  0  0  0  0  0
    4.6679   -0.2932   -0.0150 H   0  0  0  0  0  0  0  0  0  0  0  0
    3.6825    0.8450   -0.8984 H   0  0  0  0  0  0  0  0  0  0  0  0
    3.6935    0.8353    0.9003 H   0  0  0  0  0  0  0  0  0  0  0  0
   -2.1288    1.7973    0.0002 H   0  0  0  0  0  0  0  0  0  0  0  0
    2.0587    1.8611   -0.0001 H   0  0  0  0  0  0  0  0  0  0  0  0
  1  8  1  0  0  0  0
  2  3  3  0  0  0  0
  2 17  1  0  0  0  0
  4  6  1  0  0  0  0
  4  9  1  0  0  0  0
  4 10  1  0  0  0  0
  4 11  1  0  0  0  0
  5  7  1  0  0  0  0
  5 12  1  0  0  0  0
  5 13  1  0  0  0  0
  5 14  1  0  0  0  0
  6  8  2  0  0  0  0
  6 15  1  0  0  0  0
  7  8  1  0  0  0  0
  7 16  2  0  0  0  0
  9 18  1  0  0  0  0
  9 19  1  0  0  0  0
  9 20  1  0  0  0  0
 10 21  1  0  0  0  0
 10 22  1  0  0  0  0
 10 23  1  0  0  0  0
 11 24  1  0  0  0  0
 11 25  1  0  0  0  0
 11 26  1  0  0  0  0
 12 27  1  0  0  0  0
 12 28  1  0  0  0  0
 12 29  1  0  0  0  0
 13 30  1  0  0  0  0
 13 31  1  0  0  0  0
 13 32  1  0  0  0  0
 14 33  1  0  0  0  0
 14 34  1  0  0  0  0
 14 35  1  0  0  0  0
 15 17  2  0  0  0  0
 15 36  1  0  0  0  0
 16 17  1  0  0  0  0
 16 37  1  0  0  0  0
M  CHG  2   1  -1   2   1
M  END
> <PUBCHEM_COMPOUND_CID>
595368

> <PUBCHEM_CONFORMER_RMSD>
0.6

> <PUBCHEM_CONFORMER_DIVERSEORDER>
1
2

> <PUBCHEM_MMFF94_PARTIAL_CHARGES>
13
1 -0.83
15 -0.15
16 -0.15
17 0.14
2 1.35
3 -0.49
36 0.15
37 0.15
4 0.14
5 0.14
6 -0.14
7 -0.14
8 -0.17

> <PUBCHEM_EFFECTIVE_ROTOR_COUNT>
2

> <PUBCHEM_PHARMACOPHORE_FEATURES>
3
4 4 9 10 11 hydrophobe
4 5 12 13 14 hydrophobe
6 6 7 8 15 16 17 rings

> <PUBCHEM_HEAVY_ATOM_COUNT>
17

> <PUBCHEM_ATOM_DEF_STEREO_COUNT>
0

> <PUBCHEM_ATOM_UDEF_STEREO_COUNT>
0

> <PUBCHEM_BOND_DEF_STEREO_COUNT>
0

> <PUBCHEM_BOND_UDEF_STEREO_COUNT>
0

> <PUBCHEM_ISOTOPIC_ATOM_COUNT>
0

> <PUBCHEM_COMPONENT_COUNT>
1

> <PUBCHEM_CACTVS_TAUTO_COUNT>
1

> <PUBCHEM_CONFORMER_ID>
000915A800000001

> <PUBCHEM_MMFF94_ENERGY>
89.885

> <PUBCHEM_FEATURE_SELFOVERLAP>
15.223

> <PUBCHEM_SHAPE_FINGERPRINT>
108231 29 18189063147278964690
10967382 1 18410856581125182049
11132069 177 18202277000833523250
116883 192 18197782102640719420
12553582 1 18410855464434120334
12759256 9 18124316270320054519
12788726 201 18264772051939412160
13132413 78 18341055202270127813
13140716 1 18409730621088992593
14022347 108 18265073352495840267
14181834 199 18048023361808032685
14648413 74 18192429903665278833
14817 1 18051707546062919413
15490181 7 17690570688614538312
15490181 8 17690553504529495305
16752209 62 17976253534905526123
16945 1 18050568439247633324
193761 8 17545883728780632675
19868273 325 18410857650645924399
20510252 161 18198059175445036048
20645476 183 17398974686174962414
20645477 70 17979346788096970967
20711985 344 18193567657418153142
21041028 32 18337972172008612145
21285901 2 17986393283072208069
21524375 3 17254558192847251532
22112679 90 18269580306302829809
2255824 54 17980765153252708141
2334 1 18410293648346569545
23388829 49 18342173426975090132
23402539 116 18341885312506837494
23419403 2 16834811172448232011
23557571 272 18337954485433299604
23558518 356 17543066788743930531
23559900 14 18196932180901930838
2748010 2 18411974771565949292
3071541 12 18050851314452760965
3071541 158 18261391221135192381
3071541 236 17829882140400839816
3084891 72 18119801422711691899
3091708 16 9426563434993712504
31174 14 17974589175413417355
34934 24 18410849966865016202
352729 6 17690278209789710052
4175511 71 18340219560679647101
58807428 26 16822197201291991906
6992083 37 18130518469847837003
7364860 26 18052259788726460293
81228 2 18265901241633084248
90316 7 18339066099693333842

> <PUBCHEM_SHAPE_MULTIPOLES>
334.02
5.26
3.54
0.98
0.17
4.83
0
-3.2
0
-0.11
0
0.01
-0.68
-0.02

> <PUBCHEM_SHAPE_SELFOVERLAP>
696.202

> <PUBCHEM_SHAPE_VOLUME>
193.2

> <PUBCHEM_COORDINATE_TYPE>
2
5
10

$$$$
