65033
  -OEChem-11202009423D

 73 77  0     1  0  0  0  0  0999 V2000
    2.1815   -3.6108    1.0979 O   0  0  0  0  0  0  0  0  0  0  0  0
    4.4471   -3.8983   -0.4832 O   0  0  0  0  0  0  0  0  0  0  0  0
   -4.5387   -0.4887   -2.5385 O   0  0  0  0  0  0  0  0  0  0  0  0
   -4.9254   -2.7739   -1.0102 O   0  0  0  0  0  0  0  0  0  0  0  0
    2.6894    2.2844   -0.6169 N   0  0  1  0  0  0  0  0  0  0  0  0
   -1.9203    1.6827    2.4682 N   0  0  0  0  0  0  0  0  0  0  0  0
    0.0173    2.6711    0.4938 C   0  0  2  0  0  0  0  0  0  0  0  0
    0.6995    3.7413   -0.3827 C   0  0  2  0  0  0  0  0  0  0  0  0
    2.1507    1.2677    0.3192 C   0  0  1  0  0  0  0  0  0  0  0  0
    0.6114    1.2822    0.1955 C   0  0  0  0  0  0  0  0  0  0  0  0
    2.2293    3.6329   -0.2637 C   0  0  0  0  0  0  0  0  0  0  0  0
    4.1532    2.2318   -0.6611 C   0  0  0  0  0  0  0  0  0  0  0  0
   -1.5011    2.6340    0.3032 C   0  0  0  0  0  0  0  0  0  0  0  0
    2.7447   -0.1228    0.0892 C   0  0  0  0  0  0  0  0  0  0  0  0
    0.2573    5.1619   -0.0202 C   0  0  0  0  0  0  0  0  0  0  0  0
    4.5842    0.9171   -1.3061 C   0  0  0  0  0  0  0  0  0  0  0  0
    3.9232   -0.2752   -0.6680 C   0  0  0  0  0  0  0  0  0  0  0  0
   -2.1067    1.5762    1.1939 C   0  0  0  0  0  0  0  0  0  0  0  0
    2.1907   -1.2632    0.6949 C   0  0  0  0  0  0  0  0  0  0  0  0
    0.8603    6.1821   -0.9641 C   0  0  0  0  0  0  0  0  0  0  0  0
    4.4755   -1.5500   -0.8663 C   0  0  0  0  0  0  0  0  0  0  0  0
   -2.8752    0.4692    0.5692 C   0  0  0  0  0  0  0  0  0  0  0  0
    2.7541   -2.5267    0.5031 C   0  0  0  0  0  0  0  0  0  0  0  0
    3.8911   -2.6714   -0.2839 C   0  0  0  0  0  0  0  0  0  0  0  0
   -3.0846   -0.6734    1.3516 C   0  0  0  0  0  0  0  0  0  0  0  0
   -2.5589    0.6892    3.3379 C   0  0  0  0  0  0  0  0  0  0  0  0
   -2.5166   -0.7106    2.7392 C   0  0  0  0  0  0  0  0  0  0  0  0
   -3.3630    0.5322   -0.7374 C   0  0  0  0  0  0  0  0  0  0  0  0
   -3.7651   -1.7665    0.8081 C   0  0  0  0  0  0  0  0  0  0  0  0
   -4.0553   -0.5581   -1.2660 C   0  0  0  0  0  0  0  0  0  0  0  0
   -4.2535   -1.7053   -0.4972 C   0  0  0  0  0  0  0  0  0  0  0  0
    1.1781   -4.3016    0.3566 C   0  0  0  0  0  0  0  0  0  0  0  0
    5.4432   -4.3180    0.4477 C   0  0  0  0  0  0  0  0  0  0  0  0
   -3.6788   -0.9390   -3.5831 C   0  0  0  0  0  0  0  0  0  0  0  0
   -6.3386   -2.8024   -0.8204 C   0  0  0  0  0  0  0  0  0  0  0  0
    0.2378    2.9063    1.5449 H   0  0  0  0  0  0  0  0  0  0  0  0
    0.4235    3.5503   -1.4302 H   0  0  0  0  0  0  0  0  0  0  0  0
    2.4245    1.5452    1.3481 H   0  0  0  0  0  0  0  0  0  0  0  0
    0.1876    0.5566    0.8950 H   0  0  0  0  0  0  0  0  0  0  0  0
    0.3165    0.9545   -0.8116 H   0  0  0  0  0  0  0  0  0  0  0  0
    2.6955    4.3348   -0.9630 H   0  0  0  0  0  0  0  0  0  0  0  0
    2.5605    3.9082    0.7466 H   0  0  0  0  0  0  0  0  0  0  0  0
    4.5561    3.0512   -1.2691 H   0  0  0  0  0  0  0  0  0  0  0  0
    4.5821    2.3320    0.3449 H   0  0  0  0  0  0  0  0  0  0  0  0
   -1.7146    2.4962   -0.7558 H   0  0  0  0  0  0  0  0  0  0  0  0
   -1.9592    3.5833    0.6013 H   0  0  0  0  0  0  0  0  0  0  0  0
    0.5270    5.4053    1.0141 H   0  0  0  0  0  0  0  0  0  0  0  0
   -0.8306    5.2525   -0.0970 H   0  0  0  0  0  0  0  0  0  0  0  0
    4.3281    0.9235   -2.3733 H   0  0  0  0  0  0  0  0  0  0  0  0
    5.6742    0.8273   -1.2249 H   0  0  0  0  0  0  0  0  0  0  0  0
    1.3177   -1.1814    1.3367 H   0  0  0  0  0  0  0  0  0  0  0  0
    1.9267    6.3375   -0.7777 H   0  0  0  0  0  0  0  0  0  0  0  0
    0.7214    5.8975   -2.0120 H   0  0  0  0  0  0  0  0  0  0  0  0
    0.3732    7.1526   -0.8177 H   0  0  0  0  0  0  0  0  0  0  0  0
    5.3708   -1.6638   -1.4735 H   0  0  0  0  0  0  0  0  0  0  0  0
   -2.0383    0.6827    4.3017 H   0  0  0  0  0  0  0  0  0  0  0  0
   -3.5925    1.0004    3.5351 H   0  0  0  0  0  0  0  0  0  0  0  0
   -1.4832   -1.0741    2.6867 H   0  0  0  0  0  0  0  0  0  0  0  0
   -3.0863   -1.3958    3.3768 H   0  0  0  0  0  0  0  0  0  0  0  0
   -3.2582    1.4133   -1.3597 H   0  0  0  0  0  0  0  0  0  0  0  0
   -3.9161   -2.6650    1.4013 H   0  0  0  0  0  0  0  0  0  0  0  0
    0.8266   -5.1440    0.9584 H   0  0  0  0  0  0  0  0  0  0  0  0
    0.3302   -3.6402    0.1514 H   0  0  0  0  0  0  0  0  0  0  0  0
    1.5888   -4.6886   -0.5812 H   0  0  0  0  0  0  0  0  0  0  0  0
    5.7816   -5.3170    0.1599 H   0  0  0  0  0  0  0  0  0  0  0  0
    6.3004   -3.6377    0.4247 H   0  0  0  0  0  0  0  0  0  0  0  0
    5.0289   -4.3669    1.4597 H   0  0  0  0  0  0  0  0  0  0  0  0
   -4.2061   -0.8250   -4.5341 H   0  0  0  0  0  0  0  0  0  0  0  0
   -2.7656   -0.3361   -3.6146 H   0  0  0  0  0  0  0  0  0  0  0  0
   -3.4271   -1.9954   -3.4470 H   0  0  0  0  0  0  0  0  0  0  0  0
   -6.8086   -1.9334   -1.2915 H   0  0  0  0  0  0  0  0  0  0  0  0
   -6.7292   -3.7089   -1.2908 H   0  0  0  0  0  0  0  0  0  0  0  0
   -6.5817   -2.8291    0.2466 H   0  0  0  0  0  0  0  0  0  0  0  0
  1 23  1  0  0  0  0
  1 32  1  0  0  0  0
  2 24  1  0  0  0  0
  2 33  1  0  0  0  0
  3 30  1  0  0  0  0
  3 34  1  0  0  0  0
  4 31  1  0  0  0  0
  4 35  1  0  0  0  0
  5  9  1  0  0  0  0
  5 11  1  0  0  0  0
  5 12  1  0  0  0  0
  6 18  2  0  0  0  0
  6 26  1  0  0  0  0
  7  8  1  0  0  0  0
  7 10  1  0  0  0  0
  7 13  1  0  0  0  0
  7 36  1  0  0  0  0
  8 11  1  0  0  0  0
  8 15  1  0  0  0  0
  8 37  1  0  0  0  0
  9 10  1  0  0  0  0
  9 14  1  0  0  0  0
  9 38  1  0  0  0  0
 10 39  1  0  0  0  0
 10 40  1  0  0  0  0
 11 41  1  0  0  0  0
 11 42  1  0  0  0  0
 12 16  1  0  0  0  0
 12 43  1  0  0  0  0
 12 44  1  0  0  0  0
 13 18  1  0  0  0  0
 13 45  1  0  0  0  0
 13 46  1  0  0  0  0
 14 17  1  0  0  0  0
 14 19  2  0  0  0  0
 15 20  1  0  0  0  0
 15 47  1  0  0  0  0
 15 48  1  0  0  0  0
 16 17  1  0  0  0  0
 16 49  1  0  0  0  0
 16 50  1  0  0  0  0
 17 21  2  0  0  0  0
 18 22  1  0  0  0  0
 19 23  1  0  0  0  0
 19 51  1  0  0  0  0
 20 52  1  0  0  0  0
 20 53  1  0  0  0  0
 20 54  1  0  0  0  0
 21 24  1  0  0  0  0
 21 55  1  0  0  0  0
 22 25  1  0  0  0  0
 22 28  2  0  0  0  0
 23 24  2  0  0  0  0
 25 27  1  0  0  0  0
 25 29  2  0  0  0  0
 26 27  1  0  0  0  0
 26 56  1  0  0  0  0
 26 57  1  0  0  0  0
 27 58  1  0  0  0  0
 27 59  1  0  0  0  0
 28 30  1  0  0  0  0
 28 60  1  0  0  0  0
 29 31  1  0  0  0  0
 29 61  1  0  0  0  0
 30 31  2  0  0  0  0
 32 62  1  0  0  0  0
 32 63  1  0  0  0  0
 32 64  1  0  0  0  0
 33 65  1  0  0  0  0
 33 66  1  0  0  0  0
 33 67  1  0  0  0  0
 34 68  1  0  0  0  0
 34 69  1  0  0  0  0
 34 70  1  0  0  0  0
 35 71  1  0  0  0  0
 35 72  1  0  0  0  0
 35 73  1  0  0  0  0
M  END
> <PUBCHEM_COMPOUND_CID>
65033

> <PUBCHEM_CONFORMER_RMSD>
1

> <PUBCHEM_CONFORMER_DIVERSEORDER>
1
24
27
19
8
18
5
20
14
26
23
22
6
21
11
15
10
12
9
4
25
2
16
7
3
13
17

> <PUBCHEM_MMFF94_PARTIAL_CHARGES>
34
1 -0.36
11 0.27
12 0.27
13 0.06
14 -0.14
16 0.14
17 -0.14
18 0.3
19 -0.15
2 -0.36
21 -0.15
22 0.09
23 0.08
24 0.08
25 -0.14
26 0.25
27 0.14
28 -0.15
29 -0.15
3 -0.36
30 0.08
31 0.08
32 0.28
33 0.28
34 0.28
35 0.28
4 -0.36
5 -0.81
51 0.15
55 0.15
6 -0.7
60 0.15
61 0.15
9 0.41

> <PUBCHEM_EFFECTIVE_ROTOR_COUNT>
8.6

> <PUBCHEM_PHARMACOPHORE_FEATURES>
12
1 1 acceptor
1 2 acceptor
1 20 hydrophobe
1 3 acceptor
1 4 acceptor
1 5 cation
1 6 acceptor
6 14 17 19 21 23 24 rings
6 22 25 28 29 30 31 rings
6 5 7 8 9 10 11 rings
6 5 9 12 14 16 17 rings
6 6 18 22 25 26 27 rings

> <PUBCHEM_HEAVY_ATOM_COUNT>
35

> <PUBCHEM_ATOM_DEF_STEREO_COUNT>
3

> <PUBCHEM_ATOM_UDEF_STEREO_COUNT>
0

> <PUBCHEM_BOND_DEF_STEREO_COUNT>
0

> <PUBCHEM_BOND_UDEF_STEREO_COUNT>
0

> <PUBCHEM_ISOTOPIC_ATOM_COUNT>
0

> <PUBCHEM_COMPONENT_COUNT>
1

> <PUBCHEM_CACTVS_TAUTO_COUNT>
1

> <PUBCHEM_CONFORMER_ID>
0000FE0900000001

> <PUBCHEM_MMFF94_ENERGY>
137.2756

> <PUBCHEM_FEATURE_SELFOVERLAP>
60.975

> <PUBCHEM_SHAPE_FINGERPRINT>
10622 236 18201714059612591615
10928967 22 18196679344286978742
10940486 97 17613731319335958396
11049842 53 14708023580326433993
11135926 11 18263093252687930884
11227688 84 18336565849344352476
11285246 1 17537133875281954116
11377469 6 18059585732061109517
11607047 403 18128517440859564746
11991303 11 16890619290609977980
12156800 1 15677657338411857469
12553582 1 18190755136939358464
13383661 66 16179301302703708351
1361 2 17759234490317136951
13690498 29 17906480756733133470
13911987 19 17900559070147382364
14114206 34 17606126082604091008
14279260 333 16885848007372783490
14659021 117 18120080685716617232
14674994 50 17697025947156796480
14844126 61 17759247297651443472
16628084 112 17758116995593279245
17138139 8 16837688766282471669
19315092 285 17774995813101776624
19319366 153 17767963503986449077
20028762 73 18055639662317508292
20511986 3 17702392930327730385
20764821 26 18264216824416511514
20775530 9 17988919007135900303
208703 8 17845945124925381751
21133410 171 17610296568816446771
238 59 18117550941009816121
3383291 50 17690840064595237697
3882209 13 18118096140227419666
4017518 198 16681469587251379286
44880168 125 17411917076100713590
46194498 28 17533212205484697381
463206 1 18264498294966204354
50150288 127 16693914319411008539
5223283 242 18336533959745528157
59025328 239 18198314360631749869
613672 6 18335968796986682402
70251023 43 18338518668069260761

> <PUBCHEM_SHAPE_MULTIPOLES>
686.84
11.39
7.23
2.28
3.88
5.05
-0.1
-13.1
4.72
-7.53
0.77
4.09
-0.28
-2.42

> <PUBCHEM_SHAPE_SELFOVERLAP>
1473.145

> <PUBCHEM_SHAPE_VOLUME>
380.7

> <PUBCHEM_COORDINATE_TYPE>
2
5
10

$$$$
