92271
  -OEChem-11202009183D

 17 16  0     0  0  0  0  0  0999 V2000
    2.2163    0.4755    0.4544 O   0  0  0  0  0  0  0  0  0  0  0  0
    0.2867   -0.3033    0.0970 N   0  0  0  0  0  0  0  0  0  0  0  0
    1.3110    0.3875   -0.3837 N   0  0  0  0  0  0  0  0  0  0  0  0
   -1.0165    0.1604   -0.3277 C   0  0  0  0  0  0  0  0  0  0  0  0
   -1.1359    1.6516   -0.0428 C   0  0  0  0  0  0  0  0  0  0  0  0
   -2.0985   -0.6312    0.3953 C   0  0  0  0  0  0  0  0  0  0  0  0
    0.4369   -1.7405   -0.1924 C   0  0  0  0  0  0  0  0  0  0  0  0
   -1.1561    0.0195   -1.4093 H   0  0  0  0  0  0  0  0  0  0  0  0
   -2.1495    2.0015   -0.2717 H   0  0  0  0  0  0  0  0  0  0  0  0
   -0.9468    1.8811    1.0127 H   0  0  0  0  0  0  0  0  0  0  0  0
   -0.4565    2.2556   -0.6547 H   0  0  0  0  0  0  0  0  0  0  0  0
   -2.1897   -1.6570    0.0239 H   0  0  0  0  0  0  0  0  0  0  0  0
   -3.0786   -0.1654    0.2378 H   0  0  0  0  0  0  0  0  0  0  0  0
   -1.9290   -0.6629    1.4779 H   0  0  0  0  0  0  0  0  0  0  0  0
    1.4574   -2.0843    0.0258 H   0  0  0  0  0  0  0  0  0  0  0  0
    0.2282   -1.9789   -1.2429 H   0  0  0  0  0  0  0  0  0  0  0  0
   -0.2024   -2.3553    0.4495 H   0  0  0  0  0  0  0  0  0  0  0  0
  1  3  2  0  0  0  0
  2  3  1  0  0  0  0
  2  4  1  0  0  0  0
  2  7  1  0  0  0  0
  4  5  1  0  0  0  0
  4  6  1  0  0  0  0
  4  8  1  0  0  0  0
  5  9  1  0  0  0  0
  5 10  1  0  0  0  0
  5 11  1  0  0  0  0
  6 12  1  0  0  0  0
  6 13  1  0  0  0  0
  6 14  1  0  0  0  0
  7 15  1  0  0  0  0
  7 16  1  0  0  0  0
  7 17  1  0  0  0  0
M  END
> <PUBCHEM_COMPOUND_CID>
92271

> <PUBCHEM_CONFORMER_RMSD>
0.4

> <PUBCHEM_CONFORMER_DIVERSEORDER>
4
9
18
17
11
14
7
19
6
13
8
10
15
12
2
3
1
5
16

> <PUBCHEM_MMFF94_PARTIAL_CHARGES>
5
1 -0.16
2 -0.36
3 -0.01
4 0.27
7 0.27

> <PUBCHEM_EFFECTIVE_ROTOR_COUNT>
2

> <PUBCHEM_PHARMACOPHORE_FEATURES>
1
3 4 5 6 hydrophobe

> <PUBCHEM_HEAVY_ATOM_COUNT>
7

> <PUBCHEM_ATOM_DEF_STEREO_COUNT>
0

> <PUBCHEM_ATOM_UDEF_STEREO_COUNT>
0

> <PUBCHEM_BOND_DEF_STEREO_COUNT>
0

> <PUBCHEM_BOND_UDEF_STEREO_COUNT>
0

> <PUBCHEM_ISOTOPIC_ATOM_COUNT>
0

> <PUBCHEM_COMPONENT_COUNT>
1

> <PUBCHEM_CACTVS_TAUTO_COUNT>
1

> <PUBCHEM_CONFORMER_ID>
0001686F00000004

> <PUBCHEM_MMFF94_ENERGY>
14.1966

> <PUBCHEM_FEATURE_SELFOVERLAP>
5.074

> <PUBCHEM_SHAPE_FINGERPRINT>
16714656 1 18267028425782309246
20096714 4 18051693248217146949
21040471 1 18047758100422781709
24536 1 18192419784468985261
29004967 10 18335431204831386771

> <PUBCHEM_SHAPE_MULTIPOLES>
128.23
2.45
1.62
0.67
0.31
0.14
0
-0.29
-0.37
-0.18
0.05
-0.02
0.01
0.2

> <PUBCHEM_SHAPE_SELFOVERLAP>
230.826

> <PUBCHEM_SHAPE_VOLUME>
85.2

> <PUBCHEM_COORDINATE_TYPE>
2
5
10

$$$$
