622897
  -OEChem-11202009373D

 36 39  0     0  0  0  0  0  0999 V2000
   -0.3840   -0.0427   -0.0045 N   0  0  0  0  0  0  0  0  0  0  0  0
    0.6072   -0.9978   -0.0299 C   0  0  0  0  0  0  0  0  0  0  0  0
   -0.0231   -2.2430   -0.0776 C   0  0  0  0  0  0  0  0  0  0  0  0
    1.9994   -0.8561   -0.0146 C   0  0  0  0  0  0  0  0  0  0  0  0
   -1.6157   -0.6396   -0.0340 C   0  0  0  0  0  0  0  0  0  0  0  0
   -1.4254   -2.0015   -0.0794 C   0  0  0  0  0  0  0  0  0  0  0  0
    2.6127    0.4497    0.0347 C   0  0  0  0  0  0  0  0  0  0  0  0
    0.7730   -3.4052   -0.1119 C   0  0  0  0  0  0  0  0  0  0  0  0
   -2.8380    0.1272   -0.0163 C   0  0  0  0  0  0  0  0  0  0  0  0
    2.7684   -2.0228   -0.0492 C   0  0  0  0  0  0  0  0  0  0  0  0
    2.1668   -3.2788   -0.0972 C   0  0  0  0  0  0  0  0  0  0  0  0
    2.9192    1.1255   -1.1484 C   0  0  0  0  0  0  0  0  0  0  0  0
    2.9035    1.0408    1.2661 C   0  0  0  0  0  0  0  0  0  0  0  0
   -3.9887   -0.4084    0.5616 C   0  0  0  0  0  0  0  0  0  0  0  0
   -2.8683    1.4035   -0.5779 C   0  0  0  0  0  0  0  0  0  0  0  0
    3.5137    2.3865   -1.1000 C   0  0  0  0  0  0  0  0  0  0  0  0
    3.4977    2.3018    1.3144 C   0  0  0  0  0  0  0  0  0  0  0  0
   -5.1704    0.3326    0.5779 C   0  0  0  0  0  0  0  0  0  0  0  0
   -4.0499    2.1446   -0.5614 C   0  0  0  0  0  0  0  0  0  0  0  0
    3.8028    2.9747    0.1312 C   0  0  0  0  0  0  0  0  0  0  0  0
   -5.2009    1.6092    0.0165 C   0  0  0  0  0  0  0  0  0  0  0  0
   -0.2140    0.9525    0.0446 H   0  0  0  0  0  0  0  0  0  0  0  0
   -2.2014   -2.7549   -0.1155 H   0  0  0  0  0  0  0  0  0  0  0  0
    0.3171   -4.3905   -0.1493 H   0  0  0  0  0  0  0  0  0  0  0  0
    3.8551   -1.9641   -0.0391 H   0  0  0  0  0  0  0  0  0  0  0  0
    2.7856   -4.1718   -0.1235 H   0  0  0  0  0  0  0  0  0  0  0  0
    2.7006    0.6818   -2.1169 H   0  0  0  0  0  0  0  0  0  0  0  0
    2.6723    0.5303    2.1982 H   0  0  0  0  0  0  0  0  0  0  0  0
   -3.9916   -1.3974    1.0132 H   0  0  0  0  0  0  0  0  0  0  0  0
   -1.9935    1.8452   -1.0484 H   0  0  0  0  0  0  0  0  0  0  0  0
    3.7513    2.9105   -2.0211 H   0  0  0  0  0  0  0  0  0  0  0  0
    3.7228    2.7598    2.2730 H   0  0  0  0  0  0  0  0  0  0  0  0
   -6.0665   -0.0834    1.0291 H   0  0  0  0  0  0  0  0  0  0  0  0
   -4.0749    3.1373   -1.0013 H   0  0  0  0  0  0  0  0  0  0  0  0
    4.2655    3.9565    0.1687 H   0  0  0  0  0  0  0  0  0  0  0  0
   -6.1210    2.1860    0.0290 H   0  0  0  0  0  0  0  0  0  0  0  0
  1  2  1  0  0  0  0
  1  5  1  0  0  0  0
  1 22  1  0  0  0  0
  2  3  2  0  0  0  0
  2  4  1  0  0  0  0
  3  6  1  0  0  0  0
  3  8  1  0  0  0  0
  4  7  1  0  0  0  0
  4 10  2  0  0  0  0
  5  6  2  0  0  0  0
  5  9  1  0  0  0  0
  6 23  1  0  0  0  0
  7 12  2  0  0  0  0
  7 13  1  0  0  0  0
  8 11  2  0  0  0  0
  8 24  1  0  0  0  0
  9 14  2  0  0  0  0
  9 15  1  0  0  0  0
 10 11  1  0  0  0  0
 10 25  1  0  0  0  0
 11 26  1  0  0  0  0
 12 16  1  0  0  0  0
 12 27  1  0  0  0  0
 13 17  2  0  0  0  0
 13 28  1  0  0  0  0
 14 18  1  0  0  0  0
 14 29  1  0  0  0  0
 15 19  2  0  0  0  0
 15 30  1  0  0  0  0
 16 20  2  0  0  0  0
 16 31  1  0  0  0  0
 17 20  1  0  0  0  0
 17 32  1  0  0  0  0
 18 21  2  0  0  0  0
 18 33  1  0  0  0  0
 19 21  1  0  0  0  0
 19 34  1  0  0  0  0
 20 35  1  0  0  0  0
 21 36  1  0  0  0  0
M  END
> <PUBCHEM_COMPOUND_CID>
622897

> <PUBCHEM_CONFORMER_RMSD>
0.6

> <PUBCHEM_CONFORMER_DIVERSEORDER>
1
2
3

> <PUBCHEM_MMFF94_PARTIAL_CHARGES>
33
1 0.03
10 -0.15
11 -0.15
12 -0.15
13 -0.15
14 -0.15
15 -0.15
16 -0.15
17 -0.15
18 -0.15
19 -0.15
2 -0.15
20 -0.15
21 -0.15
22 0.27
23 0.15
24 0.15
25 0.15
26 0.15
27 0.15
28 0.15
29 0.15
30 0.15
31 0.15
32 0.15
33 0.15
34 0.15
35 0.15
36 0.15
5 -0.2
6 -0.15
8 -0.15
9 0.05

> <PUBCHEM_EFFECTIVE_ROTOR_COUNT>
2

> <PUBCHEM_PHARMACOPHORE_FEATURES>
6
1 1 cation
1 1 donor
5 1 2 3 5 6 rings
6 2 3 4 8 10 11 rings
6 7 12 13 16 17 20 rings
6 9 14 15 18 19 21 rings

> <PUBCHEM_HEAVY_ATOM_COUNT>
21

> <PUBCHEM_ATOM_DEF_STEREO_COUNT>
0

> <PUBCHEM_ATOM_UDEF_STEREO_COUNT>
0

> <PUBCHEM_BOND_DEF_STEREO_COUNT>
0

> <PUBCHEM_BOND_UDEF_STEREO_COUNT>
0

> <PUBCHEM_ISOTOPIC_ATOM_COUNT>
0

> <PUBCHEM_COMPONENT_COUNT>
1

> <PUBCHEM_CACTVS_TAUTO_COUNT>
1

> <PUBCHEM_CONFORMER_ID>
0009813100000001

> <PUBCHEM_MMFF94_ENERGY>
59.1496

> <PUBCHEM_FEATURE_SELFOVERLAP>
30.54

> <PUBCHEM_SHAPE_FINGERPRINT>
10165383 225 18338810012506160572
10411042 1 17618505380742500543
10498660 4 18271529804922670065
10670039 82 18190749837076712084
11582403 64 16555900265855077832
11595378 159 15719393880716260277
11725454 13 16771242959686971616
12035758 1 18264749005936121346
12107183 9 18264753524432179720
12173636 292 18194679495612586062
12390115 104 18125458632847274312
12403259 226 17901103023480844191
12633257 1 15575272232925447920
12730499 353 18411430518011284659
12769317 202 18343576352220277728
12788726 201 17251752750638220454
12925494 130 18194119608731450273
13134695 92 17978782411734431006
13140716 1 18409162225349583642
138480 1 18122344579889201670
13878862 14 18191851337580580493
13955234 65 18338521828875014547
13965767 371 18115853231049030964
14123255 52 18339080500808549140
14178342 30 18190175887474668154
14468879 13 18260837046005295753
14848178 96 18412826884756845873
14955137 171 18266175029246589338
151778 21 18409451396780880024
15342168 16 18336265725556553701
17134986 127 18410862092074755182
17868525 174 17901660467101484713
17980427 23 17914019115717292238
1798214 55 18339643437850935124
18681886 176 18199461065476634130
18785283 64 18335419032836268338
19784866 34 18271522095466669889
20567600 9 18339939120558524588
21065198 57 18192432974925669387
21133410 127 17967816024472627980
21452121 103 18410567358164658762
21709351 56 18339635629864220087
21756936 100 18125154090255604460
21860390 5 17984420737267753518
22122407 14 17843421600539131217
22149856 69 18264229005982694979
23558518 356 18262792012092895762
23559900 14 18265049124854355491
283562 15 17907851052637401967
350125 39 18409169874881035748
469060 322 17904497538315302179
474 4 18409729551847668979
49207404 50 18260838102588355555
495365 180 18342170051115120778
5048184 11 18339363079523380581
5104073 3 18335145242120137745
5252454 2 18343022232951543489
57124632 79 18339631283378142496
6287921 2 18334862688494848733
633830 44 18201721743234854381
6442390 28 18338804544870192574
67856867 119 18339070506767876011
7364860 26 18341048502337482270
7808743 9 18048882098065781220
7970288 3 9078574597551709664
84936 182 18343863299169692984
960060 61 12103846782449506377
9981440 41 18265888236630381098
9999458 23 18335143038016593390

> <PUBCHEM_SHAPE_MULTIPOLES>
427.19
9.63
3.96
0.96
10.43
1.58
0.07
-8.34
0.72
-3.83
-0.24
-0.66
-0.53
0.53

> <PUBCHEM_SHAPE_SELFOVERLAP>
966.647

> <PUBCHEM_SHAPE_VOLUME>
224

> <PUBCHEM_COORDINATE_TYPE>
2
5
10

$$$$
