5376471
  -OEChem-11202009413D

 39 40  0     1  0  0  0  0  0999 V2000
    0.5022    3.1710    0.2482 O   0  0  0  0  0  0  0  0  0  0  0  0
    3.1573    4.0018    0.6961 O   0  0  0  0  0  0  0  0  0  0  0  0
    4.7567   -3.3604    0.1742 O   0  0  0  0  0  0  0  0  0  0  0  0
   -6.5116   -1.1060    0.6163 O   0  0  0  0  0  0  0  0  0  0  0  0
    1.1279    0.9248   -0.3718 C   0  0  1  0  0  0  0  0  0  0  0  0
    1.5408    2.1970    0.4139 C   0  0  1  0  0  0  0  0  0  0  0  0
    2.1066   -0.2308   -0.2244 C   0  0  0  0  0  0  0  0  0  0  0  0
   -0.2654    0.4866    0.0491 C   0  0  0  0  0  0  0  0  0  0  0  0
    2.8508    2.8369   -0.0609 C   0  0  0  0  0  0  0  0  0  0  0  0
    2.7371   -0.7185   -1.3506 C   0  0  0  0  0  0  0  0  0  0  0  0
    2.3341   -0.7562    1.0312 C   0  0  0  0  0  0  0  0  0  0  0  0
   -1.3181    0.4695   -0.7845 C   0  0  0  0  0  0  0  0  0  0  0  0
    3.6343   -1.7780   -1.2155 C   0  0  0  0  0  0  0  0  0  0  0  0
    3.2313   -1.8157    1.1664 C   0  0  0  0  0  0  0  0  0  0  0  0
   -2.6817    0.0552   -0.4164 C   0  0  0  0  0  0  0  0  0  0  0  0
    3.8815   -2.3266    0.0430 C   0  0  0  0  0  0  0  0  0  0  0  0
   -2.8737   -0.7320    0.7082 C   0  0  0  0  0  0  0  0  0  0  0  0
   -3.7500    0.4605   -1.2015 C   0  0  0  0  0  0  0  0  0  0  0  0
   -4.1663   -1.1240    1.0564 C   0  0  0  0  0  0  0  0  0  0  0  0
   -5.0426    0.0687   -0.8533 C   0  0  0  0  0  0  0  0  0  0  0  0
   -5.2509   -0.7236    0.2758 C   0  0  0  0  0  0  0  0  0  0  0  0
    1.0788    1.2092   -1.4333 H   0  0  0  0  0  0  0  0  0  0  0  0
    1.6040    2.0038    1.4911 H   0  0  0  0  0  0  0  0  0  0  0  0
   -0.3821    0.2250    1.0972 H   0  0  0  0  0  0  0  0  0  0  0  0
    2.7823    3.1381   -1.1116 H   0  0  0  0  0  0  0  0  0  0  0  0
    3.6903    2.1440    0.0452 H   0  0  0  0  0  0  0  0  0  0  0  0
    2.5531   -0.2992   -2.3351 H   0  0  0  0  0  0  0  0  0  0  0  0
    1.8411   -0.3703    1.9179 H   0  0  0  0  0  0  0  0  0  0  0  0
   -1.1811    0.7784   -1.8184 H   0  0  0  0  0  0  0  0  0  0  0  0
    0.4391    3.3816   -0.6992 H   0  0  0  0  0  0  0  0  0  0  0  0
    4.1344   -2.1668   -2.0985 H   0  0  0  0  0  0  0  0  0  0  0  0
    3.4203   -2.2383    2.1495 H   0  0  0  0  0  0  0  0  0  0  0  0
    2.3962    4.6027    0.6241 H   0  0  0  0  0  0  0  0  0  0  0  0
   -2.0587   -1.0861    1.3315 H   0  0  0  0  0  0  0  0  0  0  0  0
   -3.6041    1.0790   -2.0832 H   0  0  0  0  0  0  0  0  0  0  0  0
   -4.3152   -1.7455    1.9355 H   0  0  0  0  0  0  0  0  0  0  0  0
   -5.8835    0.3840   -1.4650 H   0  0  0  0  0  0  0  0  0  0  0  0
    5.1127   -3.5853   -0.7027 H   0  0  0  0  0  0  0  0  0  0  0  0
   -6.4697   -1.6486    1.4225 H   0  0  0  0  0  0  0  0  0  0  0  0
  1  6  1  0  0  0  0
  1 30  1  0  0  0  0
  2  9  1  0  0  0  0
  2 33  1  0  0  0  0
  3 16  1  0  0  0  0
  3 38  1  0  0  0  0
  4 21  1  0  0  0  0
  4 39  1  0  0  0  0
  5  6  1  0  0  0  0
  5  7  1  0  0  0  0
  5  8  1  0  0  0  0
  5 22  1  0  0  0  0
  6  9  1  0  0  0  0
  6 23  1  0  0  0  0
  7 10  2  0  0  0  0
  7 11  1  0  0  0  0
  8 12  2  0  0  0  0
  8 24  1  0  0  0  0
  9 25  1  0  0  0  0
  9 26  1  0  0  0  0
 10 13  1  0  0  0  0
 10 27  1  0  0  0  0
 11 14  2  0  0  0  0
 11 28  1  0  0  0  0
 12 15  1  0  0  0  0
 12 29  1  0  0  0  0
 13 16  2  0  0  0  0
 13 31  1  0  0  0  0
 14 16  1  0  0  0  0
 14 32  1  0  0  0  0
 15 17  2  0  0  0  0
 15 18  1  0  0  0  0
 17 19  1  0  0  0  0
 17 34  1  0  0  0  0
 18 20  2  0  0  0  0
 18 35  1  0  0  0  0
 19 21  2  0  0  0  0
 19 36  1  0  0  0  0
 20 21  1  0  0  0  0
 20 37  1  0  0  0  0
M  END
> <PUBCHEM_COMPOUND_CID>
5376471

> <PUBCHEM_CONFORMER_RMSD>
0.8

> <PUBCHEM_CONFORMER_DIVERSEORDER>
1
21
16
24
18
9
17
6
22
15
10
14
3
11
13
7
23
5
4
20
8
19
2
12

> <PUBCHEM_MMFF94_PARTIAL_CHARGES>
35
1 -0.68
10 -0.15
11 -0.15
12 -0.18
13 -0.15
14 -0.15
15 0.03
16 0.08
17 -0.15
18 -0.15
19 -0.15
2 -0.68
20 -0.15
21 0.08
24 0.15
27 0.15
28 0.15
29 0.15
3 -0.53
30 0.4
31 0.15
32 0.15
33 0.4
34 0.15
35 0.15
36 0.15
37 0.15
38 0.45
39 0.45
4 -0.53
5 0.28
6 0.28
7 -0.14
8 -0.29
9 0.28

> <PUBCHEM_EFFECTIVE_ROTOR_COUNT>
5

> <PUBCHEM_PHARMACOPHORE_FEATURES>
8
1 1 acceptor
1 1 donor
1 2 acceptor
1 2 donor
1 3 donor
1 4 donor
6 15 17 18 19 20 21 rings
6 7 10 11 13 14 16 rings

> <PUBCHEM_HEAVY_ATOM_COUNT>
21

> <PUBCHEM_ATOM_DEF_STEREO_COUNT>
0

> <PUBCHEM_ATOM_UDEF_STEREO_COUNT>
2

> <PUBCHEM_BOND_DEF_STEREO_COUNT>
1

> <PUBCHEM_BOND_UDEF_STEREO_COUNT>
0

> <PUBCHEM_ISOTOPIC_ATOM_COUNT>
0

> <PUBCHEM_COMPONENT_COUNT>
1

> <PUBCHEM_CACTVS_TAUTO_COUNT>
4

> <PUBCHEM_CONFORMER_ID>
005209D700000001

> <PUBCHEM_MMFF94_ENERGY>
57.0379

> <PUBCHEM_FEATURE_SELFOVERLAP>
40.604

> <PUBCHEM_SHAPE_FINGERPRINT>
10369192 42 17825949505511159276
10498660 4 8069729815377355631
10912923 1 17703230728302087543
11405975 8 18410011018804508009
11475781 23 16952219180932627231
12107183 9 18198635328671264081
12363563 72 18339929203531447758
12516196 113 18411698743019427922
12553582 1 18267598917851575402
12616971 3 17917991690209674399
12633257 1 18201723955328069967
12644460 14 18272092746306956820
12707595 3 18409730629768669198
12730499 353 18265061412344274137
13009979 54 17774734047477084864
13052359 8 17761492491410320781
13533116 47 18410296951972797579
13544592 145 18113900468422656323
13955234 65 18341330106120903760
14252887 29 18272081678508499002
14347424 109 18342184371469814625
14866123 147 17833548994932159409
15188451 53 16987979666791296671
15842332 3 17488164084328333877
17844677 252 18411703175763092641
1813 80 18059299751552520118
18222031 100 18059855021909348038
193927 3 18341899528331668039
20369508 70 18407758127451847126
20645477 70 18411417345246218039
20671657 53 18410858720055948769
20693207 138 17967809436270914575
20832881 197 18334860459580927547
21049683 271 18334585655047494340
21065201 7 17312816087766062557
21250096 35 18335980852960239054
21344244 78 17918268753600890345
2215653 11 18186513286047603567
23559900 14 17894629262420272909
239999 70 18410014364135528286
3004659 81 17676490484712853986
312423 11 18342750602245740017
314173 41 18410858733078461990
3411729 13 18337105795464018688
3421961 26 18410855468860612224
465052 167 18410864252428046055
5104073 3 18410300229185936129
54040823 5 18412549799700682142
59755656 215 18337112375443651924
621550 34 18190172571686413861
7364860 26 18341049713607833172
77188 2 18339641123575699564
7970288 3 18339081458492259110
81228 2 17767682755118050776
8863177 126 18188219800887134739
960060 61 17458352931017490623
9709674 26 18188491410281423963
9841814 1 18411981343287703922

> <PUBCHEM_SHAPE_MULTIPOLES>
408.69
11.84
3.48
1.17
15.52
2.87
0.12
-7.59
-0.49
-6.87
-0.85
-0.06
-0.28
1.12

> <PUBCHEM_SHAPE_SELFOVERLAP>
866.271

> <PUBCHEM_SHAPE_VOLUME>
228.6

> <PUBCHEM_COORDINATE_TYPE>
2
5
10

$$$$
