5379468
  -OEChem-11202009383D

 47 49  0     0  0  0  0  0  0999 V2000
   -1.4086   -0.8849   -0.1723 O   0  0  0  0  0  0  0  0  0  0  0  0
    7.3265   -0.6934   -0.0909 N   0  0  0  0  0  0  0  0  0  0  0  0
   -1.2825    4.9769   -0.1292 N   0  0  0  0  0  0  0  0  0  0  0  0
   -5.4528    3.3448    0.2153 N   0  0  0  0  0  0  0  0  0  0  0  0
    5.9518   -0.3929    0.0044 C   0  0  0  0  0  0  0  0  0  0  0  0
    3.2511    0.1984    0.1910 C   0  0  0  0  0  0  0  0  0  0  0  0
   -2.7852   -0.6678   -0.0572 C   0  0  0  0  0  0  0  0  0  0  0  0
   -0.5505    0.2114   -0.2363 C   0  0  0  0  0  0  0  0  0  0  0  0
    5.0729   -0.8248   -0.9889 C   0  0  0  0  0  0  0  0  0  0  0  0
    5.4712    0.3367    1.0916 C   0  0  0  0  0  0  0  0  0  0  0  0
   -3.5974   -1.8976    0.0107 C   0  0  0  0  0  0  0  0  0  0  0  0
    3.7134   -0.5272   -0.8950 C   0  0  0  0  0  0  0  0  0  0  0  0
    4.1116    0.6344    1.1857 C   0  0  0  0  0  0  0  0  0  0  0  0
   -2.4205    1.7187   -0.0633 C   0  0  0  0  0  0  0  0  0  0  0  0
    1.8153    0.5130    0.2903 C   0  0  0  0  0  0  0  0  0  0  0  0
   -3.3134    0.5703    0.0043 C   0  0  0  0  0  0  0  0  0  0  0  0
   -0.9904    1.4811   -0.1879 C   0  0  0  0  0  0  0  0  0  0  0  0
    0.8368   -0.1378   -0.3572 C   0  0  0  0  0  0  0  0  0  0  0  0
    7.9579   -0.8383   -1.3874 C   0  0  0  0  0  0  0  0  0  0  0  0
    8.1288   -0.8474    1.1065 C   0  0  0  0  0  0  0  0  0  0  0  0
   -4.9104   -1.9011   -0.4694 C   0  0  0  0  0  0  0  0  0  0  0  0
   -3.0592   -3.0673    0.5551 C   0  0  0  0  0  0  0  0  0  0  0  0
   -5.6782   -3.0639   -0.4057 C   0  0  0  0  0  0  0  0  0  0  0  0
   -3.8270   -4.2301    0.6187 C   0  0  0  0  0  0  0  0  0  0  0  0
   -2.9056    2.9693   -0.0094 C   0  0  0  0  0  0  0  0  0  0  0  0
   -5.1365   -4.2283    0.1383 C   0  0  0  0  0  0  0  0  0  0  0  0
   -2.0097    4.0740   -0.0758 C   0  0  0  0  0  0  0  0  0  0  0  0
   -4.3093    3.1739    0.1143 C   0  0  0  0  0  0  0  0  0  0  0  0
    5.4137   -1.4009   -1.8446 H   0  0  0  0  0  0  0  0  0  0  0  0
    6.1299    0.6984    1.8761 H   0  0  0  0  0  0  0  0  0  0  0  0
    3.0690   -0.8664   -1.6999 H   0  0  0  0  0  0  0  0  0  0  0  0
    3.7524    1.2050    2.0380 H   0  0  0  0  0  0  0  0  0  0  0  0
    1.5741    1.3405    0.9550 H   0  0  0  0  0  0  0  0  0  0  0  0
   -4.3807    0.7072    0.1262 H   0  0  0  0  0  0  0  0  0  0  0  0
   -0.2879    2.3037   -0.2562 H   0  0  0  0  0  0  0  0  0  0  0  0
    1.0370   -1.0001   -0.9858 H   0  0  0  0  0  0  0  0  0  0  0  0
    7.7482   -1.8252   -1.8131 H   0  0  0  0  0  0  0  0  0  0  0  0
    9.0463   -0.7379   -1.3107 H   0  0  0  0  0  0  0  0  0  0  0  0
    7.6193   -0.0659   -2.0872 H   0  0  0  0  0  0  0  0  0  0  0  0
    9.0551   -1.3928    0.8936 H   0  0  0  0  0  0  0  0  0  0  0  0
    7.5971   -1.4195    1.8752 H   0  0  0  0  0  0  0  0  0  0  0  0
    8.4084    0.1295    1.5147 H   0  0  0  0  0  0  0  0  0  0  0  0
   -5.3611   -1.0207   -0.9197 H   0  0  0  0  0  0  0  0  0  0  0  0
   -2.0443   -3.0955    0.9443 H   0  0  0  0  0  0  0  0  0  0  0  0
   -6.6963   -3.0644   -0.7841 H   0  0  0  0  0  0  0  0  0  0  0  0
   -3.4060   -5.1366    1.0437 H   0  0  0  0  0  0  0  0  0  0  0  0
   -5.7340   -5.1340    0.1871 H   0  0  0  0  0  0  0  0  0  0  0  0
  1  7  1  0  0  0  0
  1  8  1  0  0  0  0
  2  5  1  0  0  0  0
  2 19  1  0  0  0  0
  2 20  1  0  0  0  0
  3 27  3  0  0  0  0
  4 28  3  0  0  0  0
  5  9  2  0  0  0  0
  5 10  1  0  0  0  0
  6 12  2  0  0  0  0
  6 13  1  0  0  0  0
  6 15  1  0  0  0  0
  7 11  1  0  0  0  0
  7 16  2  0  0  0  0
  8 17  2  0  0  0  0
  8 18  1  0  0  0  0
  9 12  1  0  0  0  0
  9 29  1  0  0  0  0
 10 13  2  0  0  0  0
 10 30  1  0  0  0  0
 11 21  2  0  0  0  0
 11 22  1  0  0  0  0
 12 31  1  0  0  0  0
 13 32  1  0  0  0  0
 14 16  1  0  0  0  0
 14 17  1  0  0  0  0
 14 25  2  0  0  0  0
 15 18  2  0  0  0  0
 15 33  1  0  0  0  0
 16 34  1  0  0  0  0
 17 35  1  0  0  0  0
 18 36  1  0  0  0  0
 19 37  1  0  0  0  0
 19 38  1  0  0  0  0
 19 39  1  0  0  0  0
 20 40  1  0  0  0  0
 20 41  1  0  0  0  0
 20 42  1  0  0  0  0
 21 23  1  0  0  0  0
 21 43  1  0  0  0  0
 22 24  2  0  0  0  0
 22 44  1  0  0  0  0
 23 26  2  0  0  0  0
 23 45  1  0  0  0  0
 24 26  1  0  0  0  0
 24 46  1  0  0  0  0
 25 27  1  0  0  0  0
 25 28  1  0  0  0  0
 26 47  1  0  0  0  0
M  END
> <PUBCHEM_COMPOUND_CID>
5379468

> <PUBCHEM_CONFORMER_RMSD>
0.8

> <PUBCHEM_CONFORMER_DIVERSEORDER>
3
1
2

> <PUBCHEM_MMFF94_PARTIAL_CHARGES>
40
1 -0.15
10 -0.15
11 0.03
12 -0.15
13 -0.15
15 -0.18
16 -0.15
17 -0.15
18 -0.15
19 0.37
2 -0.84
20 0.37
21 -0.15
22 -0.15
23 -0.15
24 -0.15
25 0.13
26 -0.15
27 0.49
28 0.49
29 0.15
3 -0.56
30 0.15
31 0.15
32 0.15
33 0.15
34 0.15
35 0.15
36 0.15
4 -0.56
43 0.15
44 0.15
45 0.15
46 0.15
47 0.15
5 0.1
6 0.03
7 0.05
8 0.08
9 -0.15

> <PUBCHEM_EFFECTIVE_ROTOR_COUNT>
4.2

> <PUBCHEM_PHARMACOPHORE_FEATURES>
7
1 1 acceptor
1 2 cation
1 3 acceptor
1 4 acceptor
6 1 7 8 14 16 17 rings
6 11 21 22 23 24 26 rings
6 5 6 9 10 12 13 rings

> <PUBCHEM_HEAVY_ATOM_COUNT>
28

> <PUBCHEM_ATOM_DEF_STEREO_COUNT>
0

> <PUBCHEM_ATOM_UDEF_STEREO_COUNT>
0

> <PUBCHEM_BOND_DEF_STEREO_COUNT>
1

> <PUBCHEM_BOND_UDEF_STEREO_COUNT>
0

> <PUBCHEM_ISOTOPIC_ATOM_COUNT>
0

> <PUBCHEM_COMPONENT_COUNT>
1

> <PUBCHEM_CACTVS_TAUTO_COUNT>
1

> <PUBCHEM_CONFORMER_ID>
0052158C00000003

> <PUBCHEM_MMFF94_ENERGY>
101.0017

> <PUBCHEM_FEATURE_SELFOVERLAP>
35.522

> <PUBCHEM_SHAPE_FINGERPRINT>
10290309 65 17904199231092719469
10319926 262 18341878681250971120
10411042 1 18266460000500323231
10595046 47 18333734641826901278
1100329 8 18337955692984131025
11056379 131 18409449167581641863
11445158 3 16701456925884921945
11545043 162 18273210902946635410
12342043 65 18059860597304379666
12758862 56 18190738825340098235
12788726 201 18189909788264508395
13540713 5 18115888436674664269
13631057 29 18408601487298895482
13673619 4 18059861717995496922
13782708 43 18060137674198013078
14068700 675 18187926239296868606
14844126 61 18334582334921281769
14866123 147 18410859867814393947
15042514 8 18411139151999314525
15230672 131 18120657925333102894
15250474 111 18115294593290443186
15419008 47 18130787906031016338
1577012 14 17967538948558999348
15876981 60 18261402156011321172
15927050 60 18195807376217179255
16087824 20 18409728419221742109
16990350 14 17043451939235932864
16992752 21 18265345065444073108
17686467 74 18263357148759228832
17844677 252 18411140260158931760
21033648 29 17774703304649669816
21304303 172 18341050800809169221
21623969 137 17417819465462454254
21639891 77 18201998841545315633
2303208 19 17846788399574229478
23081809 10 17675928677911050310
23522609 53 17751100058814641228
23559900 14 18049152573989579283
249057 25 17822299007179659980
255183 313 18269012912092128849
3004659 81 17823130297256411406
3103668 31 18261663841007508597
3418910 222 18265054807603269660
3504750 166 17970616395532004242
3610482 184 17895777109857982758
397830 11 18201992279552354480
4073 2 18412546475448755294
4409770 3 18334570227804190845
57634706 229 17771361785212125417
5969126 39 18272361010518075463
59755656 520 18264485088137071309
6009941 240 18201719510057575744
6376802 90 18125727786179881004
6698420 124 17771357365801242193
6700243 42 17913246197613010340
77188 2 18194402432111016277
9981440 41 17975421213916733345

> <PUBCHEM_SHAPE_MULTIPOLES>
555.41
19.44
5.59
0.94
40.51
2.84
0
-12.59
-0.11
-15.68
0.4
1.52
-0.24
0.65

> <PUBCHEM_SHAPE_SELFOVERLAP>
1202.557

> <PUBCHEM_SHAPE_VOLUME>
301

> <PUBCHEM_COORDINATE_TYPE>
2
5
10

$$$$
