596183
  -OEChem-11202009363D

 29 29  0     0  0  0  0  0  0999 V2000
    2.9788    0.0107    0.3234 O   0  0  0  0  0  0  0  0  0  0  0  0
   -1.1280   -2.4036   -0.0309 O   0  0  0  0  0  0  0  0  0  0  0  0
   -3.2351   -0.0353    1.0534 O   0  0  0  0  0  0  0  0  0  0  0  0
   -3.2363   -0.0342   -1.2196 O   0  0  0  0  0  0  0  0  0  0  0  0
    0.9179    1.2077    0.1480 C   0  0  0  0  0  0  0  0  0  0  0  0
   -0.4719    1.1999    0.0292 C   0  0  0  0  0  0  0  0  0  0  0  0
    0.9314   -1.2082    0.1466 C   0  0  0  0  0  0  0  0  0  0  0  0
    1.6195    0.0036    0.2065 C   0  0  0  0  0  0  0  0  0  0  0  0
   -1.1601   -0.0119   -0.0309 C   0  0  0  0  0  0  0  0  0  0  0  0
   -0.4584   -1.2159    0.0278 C   0  0  0  0  0  0  0  0  0  0  0  0
    1.6621    2.5037    0.2129 C   0  0  0  0  0  0  0  0  0  0  0  0
   -1.2213    2.4941   -0.0339 C   0  0  0  0  0  0  0  0  0  0  0  0
    1.6839   -2.4990    0.2102 C   0  0  0  0  0  0  0  0  0  0  0  0
   -2.6140   -0.0275   -0.1558 C   0  0  0  0  0  0  0  0  0  0  0  0
    3.7313    0.0158   -0.8870 C   0  0  0  0  0  0  0  0  0  0  0  0
    1.1629    3.2166    0.8778 H   0  0  0  0  0  0  0  0  0  0  0  0
    2.6731    2.3906    0.6174 H   0  0  0  0  0  0  0  0  0  0  0  0
    1.7462    2.9413   -0.7871 H   0  0  0  0  0  0  0  0  0  0  0  0
   -1.3090    2.9253    0.9688 H   0  0  0  0  0  0  0  0  0  0  0  0
   -0.7177    3.2124   -0.6899 H   0  0  0  0  0  0  0  0  0  0  0  0
   -2.2302    2.3940   -0.4436 H   0  0  0  0  0  0  0  0  0  0  0  0
    1.6546   -3.0033   -0.7614 H   0  0  0  0  0  0  0  0  0  0  0  0
    2.7358   -2.3717    0.4832 H   0  0  0  0  0  0  0  0  0  0  0  0
    1.2593   -3.1575    0.9764 H   0  0  0  0  0  0  0  0  0  0  0  0
   -0.5189   -3.1467   -0.1605 H   0  0  0  0  0  0  0  0  0  0  0  0
    3.5315    0.9239   -1.4643 H   0  0  0  0  0  0  0  0  0  0  0  0
    3.5032   -0.8667   -1.4929 H   0  0  0  0  0  0  0  0  0  0  0  0
    4.7937   -0.0050   -0.6288 H   0  0  0  0  0  0  0  0  0  0  0  0
   -4.2119   -0.0453    0.9623 H   0  0  0  0  0  0  0  0  0  0  0  0
  1  8  1  0  0  0  0
  1 15  1  0  0  0  0
  2 10  1  0  0  0  0
  2 25  1  0  0  0  0
  3 14  1  0  0  0  0
  3 29  1  0  0  0  0
  4 14  2  0  0  0  0
  5  6  2  0  0  0  0
  5  8  1  0  0  0  0
  5 11  1  0  0  0  0
  6  9  1  0  0  0  0
  6 12  1  0  0  0  0
  7  8  2  0  0  0  0
  7 10  1  0  0  0  0
  7 13  1  0  0  0  0
  9 10  2  0  0  0  0
  9 14  1  0  0  0  0
 11 16  1  0  0  0  0
 11 17  1  0  0  0  0
 11 18  1  0  0  0  0
 12 19  1  0  0  0  0
 12 20  1  0  0  0  0
 12 21  1  0  0  0  0
 13 22  1  0  0  0  0
 13 23  1  0  0  0  0
 13 24  1  0  0  0  0
 15 26  1  0  0  0  0
 15 27  1  0  0  0  0
 15 28  1  0  0  0  0
M  END
> <PUBCHEM_COMPOUND_CID>
596183

> <PUBCHEM_CONFORMER_RMSD>
0.6

> <PUBCHEM_CONFORMER_DIVERSEORDER>
1
2

> <PUBCHEM_MMFF94_PARTIAL_CHARGES>
17
1 -0.36
10 0.08
11 0.14
12 0.14
13 0.14
14 0.63
15 0.28
2 -0.53
25 0.45
29 0.5
3 -0.65
4 -0.57
5 -0.14
6 -0.14
7 -0.14
8 0.08
9 0.09

> <PUBCHEM_EFFECTIVE_ROTOR_COUNT>
2

> <PUBCHEM_PHARMACOPHORE_FEATURES>
6
1 1 acceptor
1 2 donor
1 3 acceptor
1 4 acceptor
3 3 4 14 anion
6 5 6 7 8 9 10 rings

> <PUBCHEM_HEAVY_ATOM_COUNT>
15

> <PUBCHEM_ATOM_DEF_STEREO_COUNT>
0

> <PUBCHEM_ATOM_UDEF_STEREO_COUNT>
0

> <PUBCHEM_BOND_DEF_STEREO_COUNT>
0

> <PUBCHEM_BOND_UDEF_STEREO_COUNT>
0

> <PUBCHEM_ISOTOPIC_ATOM_COUNT>
0

> <PUBCHEM_COMPONENT_COUNT>
1

> <PUBCHEM_CACTVS_TAUTO_COUNT>
13

> <PUBCHEM_CONFORMER_ID>
000918D700000001

> <PUBCHEM_MMFF94_ENERGY>
62.7145

> <PUBCHEM_FEATURE_SELFOVERLAP>
30.504

> <PUBCHEM_SHAPE_FINGERPRINT>
10967382 1 18410854386460216880
11132069 177 18411693327123306824
11206711 2 18337669719968698092
11471102 20 18337667521377575645
11471102 22 18263385666893168779
12524768 44 18337951302350914497
13140716 1 18266457800801432176
13221675 6 18411421708790669670
13897977 150 18267302217147157132
14790565 3 18266480791788793312
14911166 2 18410854377965202116
14993402 34 18412824689769640103
16945 1 18410852165999035152
193761 8 17690279313769832824
20588541 1 18410017632436835410
20645476 183 17604721091770518670
21501502 16 18122059797592572184
2334 1 17906168804125164288
23402539 116 18271800182193933166
23419403 2 16238357802458557890
23463225 33 18119808015301699586
23493267 7 17385438808789139145
23526114 1 18122342651369855484
23559900 14 18269847553287226732
241688 4 17978505330413681952
2748010 2 18122061180703819368
353137 74 18336267855701907732
5084963 1 18060132141630951609
5255222 1 18410005546372315336
528886 8 18411414050848176354
53812653 8 18336272253848606636
63268167 104 18411976927934833627

> <PUBCHEM_SHAPE_MULTIPOLES>
285.22
4.64
2.66
0.8
0.06
0.2
-0.09
-0.14
-0.76
0.55
0.21
-0.19
0
-0.03

> <PUBCHEM_SHAPE_SELFOVERLAP>
600.667

> <PUBCHEM_SHAPE_VOLUME>
163.9

> <PUBCHEM_COORDINATE_TYPE>
2
5
10

$$$$
