545118
  -OEChem-11202009183D

 22 22  0     1  0  0  0  0  0999 V2000
   -1.3009    0.7359   -0.0061 N   0  0  2  0  0  0  0  0  0  0  0  0
   -1.1033   -0.0750   -1.1517 N   0  0  0  0  0  0  0  0  0  0  0  0
   -0.0297    0.0983   -0.2102 C   0  0  0  0  0  0  0  0  0  0  0  0
    0.3371   -1.1214    0.6180 C   0  0  0  0  0  0  0  0  0  0  0  0
    1.1269    0.9308   -0.5854 C   0  0  0  0  0  0  0  0  0  0  0  0
   -2.2161   -0.0130    0.8369 C   0  0  0  0  0  0  0  0  0  0  0  0
    1.2913   -2.0393   -0.1272 C   0  0  0  0  0  0  0  0  0  0  0  0
    1.8947    1.4837    0.6256 C   0  0  0  0  0  0  0  0  0  0  0  0
   -0.9886    0.5306   -1.9631 H   0  0  0  0  0  0  0  0  0  0  0  0
   -0.5258   -1.7467    0.8701 H   0  0  0  0  0  0  0  0  0  0  0  0
    0.7753   -0.8219    1.5766 H   0  0  0  0  0  0  0  0  0  0  0  0
    0.8015    1.7963   -1.1800 H   0  0  0  0  0  0  0  0  0  0  0  0
    1.8210    0.3857   -1.2353 H   0  0  0  0  0  0  0  0  0  0  0  0
   -2.5077   -1.0138    0.4886 H   0  0  0  0  0  0  0  0  0  0  0  0
   -3.1519    0.5556    0.9034 H   0  0  0  0  0  0  0  0  0  0  0  0
   -1.8407   -0.0857    1.8647 H   0  0  0  0  0  0  0  0  0  0  0  0
    0.9026   -2.3054   -1.1155 H   0  0  0  0  0  0  0  0  0  0  0  0
    2.2773   -1.5838   -0.2589 H   0  0  0  0  0  0  0  0  0  0  0  0
    1.4383   -2.9655    0.4385 H   0  0  0  0  0  0  0  0  0  0  0  0
    1.2204    1.9962    1.3192 H   0  0  0  0  0  0  0  0  0  0  0  0
    2.4125    0.6898    1.1718 H   0  0  0  0  0  0  0  0  0  0  0  0
    2.6516    2.2001    0.2905 H   0  0  0  0  0  0  0  0  0  0  0  0
  1  2  1  0  0  0  0
  1  3  1  0  0  0  0
  1  6  1  0  0  0  0
  2  3  1  0  0  0  0
  2  9  1  0  0  0  0
  3  4  1  0  0  0  0
  3  5  1  0  0  0  0
  4  7  1  0  0  0  0
  4 10  1  0  0  0  0
  4 11  1  0  0  0  0
  5  8  1  0  0  0  0
  5 12  1  0  0  0  0
  5 13  1  0  0  0  0
  6 14  1  0  0  0  0
  6 15  1  0  0  0  0
  6 16  1  0  0  0  0
  7 17  1  0  0  0  0
  7 18  1  0  0  0  0
  7 19  1  0  0  0  0
  8 20  1  0  0  0  0
  8 21  1  0  0  0  0
  8 22  1  0  0  0  0
M  END
> <PUBCHEM_COMPOUND_CID>
545118

> <PUBCHEM_CONFORMER_RMSD>
0.4

> <PUBCHEM_CONFORMER_DIVERSEORDER>
3
1
6
7
2
8
5
4

> <PUBCHEM_MMFF94_PARTIAL_CHARGES>
7
1 -0.43
2 -0.52
3 0.13
4 0.09
5 0.09
6 0.27
9 0.36

> <PUBCHEM_EFFECTIVE_ROTOR_COUNT>
2.6

> <PUBCHEM_PHARMACOPHORE_FEATURES>
3
1 2 donor
1 7 hydrophobe
1 8 hydrophobe

> <PUBCHEM_HEAVY_ATOM_COUNT>
8

> <PUBCHEM_ATOM_DEF_STEREO_COUNT>
0

> <PUBCHEM_ATOM_UDEF_STEREO_COUNT>
0

> <PUBCHEM_BOND_DEF_STEREO_COUNT>
0

> <PUBCHEM_BOND_UDEF_STEREO_COUNT>
0

> <PUBCHEM_ISOTOPIC_ATOM_COUNT>
0

> <PUBCHEM_COMPONENT_COUNT>
1

> <PUBCHEM_CACTVS_TAUTO_COUNT>
1

> <PUBCHEM_CONFORMER_ID>
0008515E00000003

> <PUBCHEM_MMFF94_ENERGY>
18.3702

> <PUBCHEM_FEATURE_SELFOVERLAP>
15.223

> <PUBCHEM_SHAPE_FINGERPRINT>
137420 1 14075190733537610358
20653085 51 16485030169675771456
20711978 78 18410575037666553463
21040471 1 18192723464416222636
24536 1 17822006480439946661
29004967 10 18121502340955362450
5084963 1 18127967705602614540
5943 1 11707656613585753383

> <PUBCHEM_SHAPE_MULTIPOLES>
154.67
2.42
1.78
0.98
0.73
0.86
-0.06
-0.67
0.54
-1.22
0.14
0.15
-0.07
0.16

> <PUBCHEM_SHAPE_SELFOVERLAP>
290.516

> <PUBCHEM_SHAPE_VOLUME>
99.3

> <PUBCHEM_COORDINATE_TYPE>
2
5
10

$$$$
