74956
  -OEChem-11202009303D

 17 17  0     0  0  0  0  0  0999 V2000
    1.7505   -0.0070    0.3250 O   0  0  0  0  0  0  0  0  0  0  0  0
   -2.3796   -0.0003    0.1496 O   0  0  0  0  0  0  0  0  0  0  0  0
   -1.0460    0.0072   -0.3429 C   0  0  0  0  0  0  0  0  0  0  0  0
   -0.3276   -1.2488    0.1411 C   0  0  0  0  0  0  0  0  0  0  0  0
   -0.3149    1.2565    0.1419 C   0  0  0  0  0  0  0  0  0  0  0  0
    1.1528   -1.1895   -0.2079 C   0  0  0  0  0  0  0  0  0  0  0  0
    1.1649    1.1819   -0.2069 C   0  0  0  0  0  0  0  0  0  0  0  0
   -1.0912    0.0027   -1.4386 H   0  0  0  0  0  0  0  0  0  0  0  0
   -0.7926   -2.1437   -0.2876 H   0  0  0  0  0  0  0  0  0  0  0  0
   -0.4459   -1.3303    1.2295 H   0  0  0  0  0  0  0  0  0  0  0  0
   -0.4336    1.3387    1.2301 H   0  0  0  0  0  0  0  0  0  0  0  0
   -0.7696    2.1564   -0.2872 H   0  0  0  0  0  0  0  0  0  0  0  0
    1.6726   -2.0500    0.2248 H   0  0  0  0  0  0  0  0  0  0  0  0
    1.3086   -1.2193   -1.2926 H   0  0  0  0  0  0  0  0  0  0  0  0
    1.3210    1.2110   -1.2916 H   0  0  0  0  0  0  0  0  0  0  0  0
    1.6936    2.0367    0.2265 H   0  0  0  0  0  0  0  0  0  0  0  0
   -2.8113    0.8134   -0.1619 H   0  0  0  0  0  0  0  0  0  0  0  0
  1  6  1  0  0  0  0
  1  7  1  0  0  0  0
  2  3  1  0  0  0  0
  2 17  1  0  0  0  0
  3  4  1  0  0  0  0
  3  5  1  0  0  0  0
  3  8  1  0  0  0  0
  4  6  1  0  0  0  0
  4  9  1  0  0  0  0
  4 10  1  0  0  0  0
  5  7  1  0  0  0  0
  5 11  1  0  0  0  0
  5 12  1  0  0  0  0
  6 13  1  0  0  0  0
  6 14  1  0  0  0  0
  7 15  1  0  0  0  0
  7 16  1  0  0  0  0
M  END
> <PUBCHEM_COMPOUND_CID>
74956

> <PUBCHEM_CONFORMER_RMSD>
0.4

> <PUBCHEM_CONFORMER_DIVERSEORDER>
2
1
3
4

> <PUBCHEM_MMFF94_PARTIAL_CHARGES>
6
1 -0.56
17 0.4
2 -0.68
3 0.28
6 0.28
7 0.28

> <PUBCHEM_EFFECTIVE_ROTOR_COUNT>
1.2

> <PUBCHEM_PHARMACOPHORE_FEATURES>
4
1 1 acceptor
1 2 acceptor
1 2 donor
6 1 3 4 5 6 7 rings

> <PUBCHEM_HEAVY_ATOM_COUNT>
7

> <PUBCHEM_ATOM_DEF_STEREO_COUNT>
0

> <PUBCHEM_ATOM_UDEF_STEREO_COUNT>
0

> <PUBCHEM_BOND_DEF_STEREO_COUNT>
0

> <PUBCHEM_BOND_UDEF_STEREO_COUNT>
0

> <PUBCHEM_ISOTOPIC_ATOM_COUNT>
0

> <PUBCHEM_COMPONENT_COUNT>
1

> <PUBCHEM_CACTVS_TAUTO_COUNT>
1

> <PUBCHEM_CONFORMER_ID>
000124CC00000002

> <PUBCHEM_MMFF94_ENERGY>
9.5116

> <PUBCHEM_FEATURE_SELFOVERLAP>
20.297

> <PUBCHEM_SHAPE_FINGERPRINT>
16714656 1 18410862061862135044
18185500 45 18341888597655360047
20096714 4 18339079414107781830
21040471 1 18266740379468822780
23552423 10 17685227079494964910
29004967 10 18335141972879897977

> <PUBCHEM_SHAPE_MULTIPOLES>
132.32
2.18
1.51
0.64
0.71
0
-0.02
0
0.09
-0.33
-0.01
-0.02
0
0

> <PUBCHEM_SHAPE_SELFOVERLAP>
253.326

> <PUBCHEM_SHAPE_VOLUME>
80.8

> <PUBCHEM_COORDINATE_TYPE>
2
5
10

$$$$
