602378
  -OEChem-11202009333D

 46 48  0     1  0  0  0  0  0999 V2000
    3.8678    3.0964   -0.0903 O   0  0  0  0  0  0  0  0  0  0  0  0
    1.7496   -2.0379   -1.4990 O   0  0  0  0  0  0  0  0  0  0  0  0
    2.4118   -0.0695   -0.4482 N   0  0  0  0  0  0  0  0  0  0  0  0
    4.4788    0.8313   -0.1154 N   0  0  0  0  0  0  0  0  0  0  0  0
    3.7934   -0.4353   -0.1771 C   0  0  1  0  0  0  0  0  0  0  0  0
    3.9145   -1.2247    1.1231 C   0  0  0  0  0  0  0  0  0  0  0  0
    2.1947    1.3659   -0.3075 C   0  0  0  0  0  0  0  0  0  0  0  0
    3.5993    1.9050   -0.1642 C   0  0  0  0  0  0  0  0  0  0  0  0
    3.3710   -0.4131    2.2971 C   0  0  0  0  0  0  0  0  0  0  0  0
    3.1835   -2.5611    1.0106 C   0  0  0  0  0  0  0  0  0  0  0  0
    1.4815   -0.9984   -0.8996 C   0  0  0  0  0  0  0  0  0  0  0  0
    5.9213    0.9332   -0.0216 C   0  0  0  0  0  0  0  0  0  0  0  0
    0.0589   -0.7129   -0.6518 C   0  0  0  0  0  0  0  0  0  0  0  0
   -0.6773    0.0024   -1.5919 C   0  0  0  0  0  0  0  0  0  0  0  0
   -0.5411   -1.1603    0.5216 C   0  0  0  0  0  0  0  0  0  0  0  0
   -2.6311   -0.1734   -0.1820 C   0  0  0  0  0  0  0  0  0  0  0  0
   -2.0252    0.2728   -1.3564 C   0  0  0  0  0  0  0  0  0  0  0  0
   -1.8891   -0.8898    0.7571 C   0  0  0  0  0  0  0  0  0  0  0  0
   -4.0292    0.1072    0.0632 C   0  0  0  0  0  0  0  0  0  0  0  0
   -4.3996    1.2753    0.7297 C   0  0  0  0  0  0  0  0  0  0  0  0
   -5.0068   -0.7898   -0.3674 C   0  0  0  0  0  0  0  0  0  0  0  0
   -5.7474    1.5463    0.9658 C   0  0  0  0  0  0  0  0  0  0  0  0
   -6.3546   -0.5188   -0.1313 C   0  0  0  0  0  0  0  0  0  0  0  0
   -6.7248    0.6492    0.5353 C   0  0  0  0  0  0  0  0  0  0  0  0
    4.1837   -1.0084   -1.0267 H   0  0  0  0  0  0  0  0  0  0  0  0
    4.9735   -1.4384    1.3139 H   0  0  0  0  0  0  0  0  0  0  0  0
    1.6072    1.5652    0.5916 H   0  0  0  0  0  0  0  0  0  0  0  0
    1.7095    1.7638   -1.2012 H   0  0  0  0  0  0  0  0  0  0  0  0
    2.3008   -0.2032    2.2057 H   0  0  0  0  0  0  0  0  0  0  0  0
    3.5022   -0.9776    3.2280 H   0  0  0  0  0  0  0  0  0  0  0  0
    3.9028    0.5341    2.4291 H   0  0  0  0  0  0  0  0  0  0  0  0
    2.1006   -2.4760    1.0886 H   0  0  0  0  0  0  0  0  0  0  0  0
    3.4880   -3.2051    1.8451 H   0  0  0  0  0  0  0  0  0  0  0  0
    3.4537   -3.0947    0.0942 H   0  0  0  0  0  0  0  0  0  0  0  0
    6.2309    1.9797   -0.0831 H   0  0  0  0  0  0  0  0  0  0  0  0
    6.3701    0.3715   -0.8449 H   0  0  0  0  0  0  0  0  0  0  0  0
    6.2514    0.5193    0.9342 H   0  0  0  0  0  0  0  0  0  0  0  0
   -0.2148    0.3528   -2.5108 H   0  0  0  0  0  0  0  0  0  0  0  0
    0.0198   -1.7161    1.2659 H   0  0  0  0  0  0  0  0  0  0  0  0
   -2.5891    0.8325   -2.0989 H   0  0  0  0  0  0  0  0  0  0  0  0
   -2.3459   -1.2440    1.6783 H   0  0  0  0  0  0  0  0  0  0  0  0
   -3.6504    1.9855    1.0719 H   0  0  0  0  0  0  0  0  0  0  0  0
   -4.7356   -1.7050   -0.8886 H   0  0  0  0  0  0  0  0  0  0  0  0
   -6.0359    2.4556    1.4849 H   0  0  0  0  0  0  0  0  0  0  0  0
   -7.1159   -1.2171   -0.4664 H   0  0  0  0  0  0  0  0  0  0  0  0
   -7.7742    0.8602    0.7191 H   0  0  0  0  0  0  0  0  0  0  0  0
  1  8  2  0  0  0  0
  2 11  2  0  0  0  0
  3  5  1  0  0  0  0
  3  7  1  0  0  0  0
  3 11  1  0  0  0  0
  4  5  1  0  0  0  0
  4  8  1  0  0  0  0
  4 12  1  0  0  0  0
  5  6  1  0  0  0  0
  5 25  1  0  0  0  0
  6  9  1  0  0  0  0
  6 10  1  0  0  0  0
  6 26  1  0  0  0  0
  7  8  1  0  0  0  0
  7 27  1  0  0  0  0
  7 28  1  0  0  0  0
  9 29  1  0  0  0  0
  9 30  1  0  0  0  0
  9 31  1  0  0  0  0
 10 32  1  0  0  0  0
 10 33  1  0  0  0  0
 10 34  1  0  0  0  0
 11 13  1  0  0  0  0
 12 35  1  0  0  0  0
 12 36  1  0  0  0  0
 12 37  1  0  0  0  0
 13 14  2  0  0  0  0
 13 15  1  0  0  0  0
 14 17  1  0  0  0  0
 14 38  1  0  0  0  0
 15 18  2  0  0  0  0
 15 39  1  0  0  0  0
 16 17  2  0  0  0  0
 16 18  1  0  0  0  0
 16 19  1  0  0  0  0
 17 40  1  0  0  0  0
 18 41  1  0  0  0  0
 19 20  2  0  0  0  0
 19 21  1  0  0  0  0
 20 22  1  0  0  0  0
 20 42  1  0  0  0  0
 21 23  2  0  0  0  0
 21 43  1  0  0  0  0
 22 24  2  0  0  0  0
 22 44  1  0  0  0  0
 23 24  1  0  0  0  0
 23 45  1  0  0  0  0
 24 46  1  0  0  0  0
M  END
> <PUBCHEM_COMPOUND_CID>
602378

> <PUBCHEM_CONFORMER_RMSD>
0.8

> <PUBCHEM_CONFORMER_DIVERSEORDER>
1
7
10
4
9
5
8
6
3
2

> <PUBCHEM_MMFF94_PARTIAL_CHARGES>
28
1 -0.57
11 0.54
12 0.3
13 0.09
14 -0.15
15 -0.15
17 -0.15
18 -0.15
2 -0.57
20 -0.15
21 -0.15
22 -0.15
23 -0.15
24 -0.15
3 -0.66
38 0.15
39 0.15
4 -0.66
40 0.15
41 0.15
42 0.15
43 0.15
44 0.15
45 0.15
46 0.15
5 0.6
7 0.36
8 0.57

> <PUBCHEM_EFFECTIVE_ROTOR_COUNT>
4.8

> <PUBCHEM_PHARMACOPHORE_FEATURES>
6
1 1 acceptor
1 2 acceptor
3 6 9 10 hydrophobe
5 3 4 5 7 8 rings
6 13 14 15 16 17 18 rings
6 19 20 21 22 23 24 rings

> <PUBCHEM_HEAVY_ATOM_COUNT>
24

> <PUBCHEM_ATOM_DEF_STEREO_COUNT>
0

> <PUBCHEM_ATOM_UDEF_STEREO_COUNT>
1

> <PUBCHEM_BOND_DEF_STEREO_COUNT>
0

> <PUBCHEM_BOND_UDEF_STEREO_COUNT>
0

> <PUBCHEM_ISOTOPIC_ATOM_COUNT>
0

> <PUBCHEM_COMPONENT_COUNT>
1

> <PUBCHEM_CACTVS_TAUTO_COUNT>
1

> <PUBCHEM_CONFORMER_ID>
0009310A00000001

> <PUBCHEM_MMFF94_ENERGY>
76.622

> <PUBCHEM_FEATURE_SELFOVERLAP>
30.446

> <PUBCHEM_SHAPE_FINGERPRINT>
10165383 225 17822296816751580958
10354089 29 18409448098683547844
10595046 47 18343865537433073511
10670039 82 16271941375806543080
10688039 33 17822008683632193197
10816530 23 18189619508768560594
11128504 68 12247673873041097939
11724838 91 18340484560251585279
12107183 9 17834114143808512417
12166972 35 17989490684531465088
12236239 1 17917992780245072654
12403259 118 18201714012499631369
12403259 415 17676481710009694631
12596602 18 18259706701202934105
12633257 1 18114167653816398178
13167372 99 18342742867041243057
13533116 47 17968375654399438915
13673619 4 17241605018950606474
13785724 45 17836650725629631086
14251764 75 18193279826186042668
14341114 176 18187085026902066365
14341114 328 18413671297086418841
14849402 71 18334575780880925880
15142526 21 18119808268747325624
15238133 3 18060133224268464376
15475509 35 16516235242143798666
1813 80 13479133466954776558
18222031 100 15213022639644727607
19377110 9 18272926150994715543
19784866 240 11386358232039617484
20157964 124 18412266116926015439
21033648 144 18263070179654047509
21641784 216 15769508538678998297
22122407 14 18271539666510603561
22224240 67 16588303943135945136
22956985 138 13119656880496271537
23559900 14 18130235847809358423
23569914 152 11667327266589551369
268830 7 18335693966540610765
2838139 119 18060419123289076665
312425 54 17603311427880309273
314173 85 15719393915197018997
345986 75 17823961351910867888
34797466 226 17703803535010398141
4073 2 18115314495688513355
4325135 7 18131633405124926055
4340502 62 17240480330134286162
465052 167 12396303655570503865
474 4 18343588442626633455
5104073 3 18334305245275063395
542803 24 18272650143052163695
8272917 22 18409449172446763082
8509985 295 18413384324029622448
8988823 20 18113330908140033015
960060 61 9871745810407517219

> <PUBCHEM_SHAPE_MULTIPOLES>
472.21
15.11
2.09
1.38
15.12
0.52
-0.19
4.63
-3.83
-2.77
-0.24
-0.52
-0.34
-1.16

> <PUBCHEM_SHAPE_SELFOVERLAP>
1018.136

> <PUBCHEM_SHAPE_VOLUME>
262.2

> <PUBCHEM_COORDINATE_TYPE>
2
5
10

$$$$
