83577
  -OEChem-11202009243D

 31 30  0     0  0  0  0  0  0999 V2000
    0.6480   -0.3829   -0.0340 O   0  0  0  0  0  0  0  0  0  0  0  0
    2.0051    1.4799    0.0171 O   0  0  0  0  0  0  0  0  0  0  0  0
    4.6502    0.9797    0.0223 O   0  0  0  0  0  0  0  0  0  0  0  0
   -3.0260    0.4027   -0.0161 C   0  0  0  0  0  0  0  0  0  0  0  0
   -4.3040   -0.4408   -0.0049 C   0  0  0  0  0  0  0  0  0  0  0  0
   -1.7468   -0.4327   -0.0286 C   0  0  0  0  0  0  0  0  0  0  0  0
   -5.5844    0.3953   -0.0174 C   0  0  0  0  0  0  0  0  0  0  0  0
   -0.5044    0.4479   -0.0061 C   0  0  0  0  0  0  0  0  0  0  0  0
   -6.8220   -0.4853    0.0677 C   0  0  0  0  0  0  0  0  0  0  0  0
    1.8563    0.2668   -0.0183 C   0  0  0  0  0  0  0  0  0  0  0  0
    2.9656   -0.7558   -0.0314 C   0  0  0  0  0  0  0  0  0  0  0  0
    4.3828   -0.2204    0.0171 C   0  0  0  0  0  0  0  0  0  0  0  0
    5.4795   -1.2546    0.0325 C   0  0  0  0  0  0  0  0  0  0  0  0
   -3.0234    1.0563    0.8650 H   0  0  0  0  0  0  0  0  0  0  0  0
   -3.0376    1.0580   -0.8959 H   0  0  0  0  0  0  0  0  0  0  0  0
   -4.2977   -1.0814    0.8859 H   0  0  0  0  0  0  0  0  0  0  0  0
   -4.3015   -1.1094   -0.8747 H   0  0  0  0  0  0  0  0  0  0  0  0
   -1.7282   -1.1102    0.8340 H   0  0  0  0  0  0  0  0  0  0  0  0
   -1.7240   -1.0761   -0.9168 H   0  0  0  0  0  0  0  0  0  0  0  0
   -5.5808    1.0922    0.8286 H   0  0  0  0  0  0  0  0  0  0  0  0
   -5.6265    0.9958   -0.9333 H   0  0  0  0  0  0  0  0  0  0  0  0
   -0.4930    1.0575    0.9051 H   0  0  0  0  0  0  0  0  0  0  0  0
   -0.4978    1.1093   -0.8805 H   0  0  0  0  0  0  0  0  0  0  0  0
   -7.7265    0.1309    0.0549 H   0  0  0  0  0  0  0  0  0  0  0  0
   -6.8699   -1.1771   -0.7793 H   0  0  0  0  0  0  0  0  0  0  0  0
   -6.8238   -1.0720    0.9918 H   0  0  0  0  0  0  0  0  0  0  0  0
    2.8686   -1.3440   -0.9503 H   0  0  0  0  0  0  0  0  0  0  0  0
    2.8321   -1.4040    0.8416 H   0  0  0  0  0  0  0  0  0  0  0  0
    6.4530   -0.7596    0.0898 H   0  0  0  0  0  0  0  0  0  0  0  0
    5.4368   -1.8474   -0.8844 H   0  0  0  0  0  0  0  0  0  0  0  0
    5.3619   -1.9007    0.9059 H   0  0  0  0  0  0  0  0  0  0  0  0
  1  8  1  0  0  0  0
  1 10  1  0  0  0  0
  2 10  2  0  0  0  0
  3 12  2  0  0  0  0
  4  5  1  0  0  0  0
  4  6  1  0  0  0  0
  4 14  1  0  0  0  0
  4 15  1  0  0  0  0
  5  7  1  0  0  0  0
  5 16  1  0  0  0  0
  5 17  1  0  0  0  0
  6  8  1  0  0  0  0
  6 18  1  0  0  0  0
  6 19  1  0  0  0  0
  7  9  1  0  0  0  0
  7 20  1  0  0  0  0
  7 21  1  0  0  0  0
  8 22  1  0  0  0  0
  8 23  1  0  0  0  0
  9 24  1  0  0  0  0
  9 25  1  0  0  0  0
  9 26  1  0  0  0  0
 10 11  1  0  0  0  0
 11 12  1  0  0  0  0
 11 27  1  0  0  0  0
 11 28  1  0  0  0  0
 12 13  1  0  0  0  0
 13 29  1  0  0  0  0
 13 30  1  0  0  0  0
 13 31  1  0  0  0  0
M  END
> <PUBCHEM_COMPOUND_CID>
83577

> <PUBCHEM_CONFORMER_RMSD>
0.8

> <PUBCHEM_CONFORMER_DIVERSEORDER>
1
388
66
334
197
254
365
160
103
4
364
238
232
57
244
315
19
270
125
363
3
380
286
32
358
22
47
356
98
389
13
106
265
41
294
375
304
145
337
45
247
166
137
266
258
336
218
2
34
240
111
142
354
79
29
172
169
144
398
11
200
362
290
241
77
131
149
117
5
235
89
158
384
225
253
396
55
110
81
293
194
164
74
302
58
261
370
121
119
366
205
216
69
376
185
374
101
30
105
301
257
251
233
280
393
242
378
113
39
90
138
80
56
179
195
227
355
211
274
346
48
330
300
68
344
135
8
14
159
174
272
320
322
26
38
64
36
116
190
21
182
170
314
33
73
299
161
198
353
250
214
245
71
43
23
230
349
204
350
329
84
37
327
120
291
395
150
369
305
76
154
271
156
212
46
236
220
100
310
224
28
88
9
386
162
31
17
25
96
196
108
284
333
252
10
264
228
132
202
288
126
53
269
279
49
377
321
75
343
397
136
215
112
387
153
72
109
379
268
140
139
340
143
317
187
295
298
229
168
221
177
243
60
87
335
61
123
189
390
282
180
92
316
359
91
287
86
78
16
7
35
277
107
391
226
278
130
239
383
313
213
127
319
360
152
85
326
341
199
324
59
128
357
248
176
62
249
122
15
311
114
309
94
306
217
178
157
222
209
175
52
267
208
24
44
385
361
351
338
256
129
342
207
373
352
323
276
163
331
297
367
97
27
181
18
318
51
382
348
63
20
347
99
296
6
292
283
371
183
42
102
234
219
303
115
210
263
237
67
392
368
167
155
50
275
223
332
171
151
188
165
54
307
203
147
345
312
186
118
104
95
184
40
289
133
124
70
83
325
173
191
192
285
246
231
339
12
93
262
201
260
65
134
255
381
148
146
82
259
394
281
273
308
206
372
193
328
141

> <PUBCHEM_MMFF94_PARTIAL_CHARGES>
8
1 -0.43
10 0.66
11 0.12
12 0.45
13 0.06
2 -0.57
3 -0.57
8 0.28

> <PUBCHEM_EFFECTIVE_ROTOR_COUNT>
8

> <PUBCHEM_PHARMACOPHORE_FEATURES>
5
1 11 anion
1 2 acceptor
1 3 acceptor
1 9 hydrophobe
4 4 5 6 7 hydrophobe

> <PUBCHEM_HEAVY_ATOM_COUNT>
13

> <PUBCHEM_ATOM_DEF_STEREO_COUNT>
0

> <PUBCHEM_ATOM_UDEF_STEREO_COUNT>
0

> <PUBCHEM_BOND_DEF_STEREO_COUNT>
0

> <PUBCHEM_BOND_UDEF_STEREO_COUNT>
0

> <PUBCHEM_ISOTOPIC_ATOM_COUNT>
0

> <PUBCHEM_COMPONENT_COUNT>
1

> <PUBCHEM_CACTVS_TAUTO_COUNT>
5

> <PUBCHEM_CONFORMER_ID>
0001467900000001

> <PUBCHEM_MMFF94_ENERGY>
4.6254

> <PUBCHEM_FEATURE_SELFOVERLAP>
25.379

> <PUBCHEM_SHAPE_FINGERPRINT>
12091667 2 17458346330411762005
12714333 28 9367343734632146199
13533116 47 14117530796262092308
14123238 8 17918275350675722933
1420 363 17967819349277064051
14251764 46 18412543201992533827
15242439 84 17821729446844243105
17834072 33 18343863342040023557
17834076 25 16056880230192448767
187816 3 15719393923718647597
20645477 70 18338798910332302526
20767249 213 9295283946061089267
21130983 4 10663815295407531435
21267235 1 18341336600433110942
23218964 4 18409165494045892863
23402539 116 17917987274730066893
42788 4 18410292506317597109
8209 1 18407760331033625742

> <PUBCHEM_SHAPE_MULTIPOLES>
249.93
16.12
1.06
0.6
12.29
0.1
0
-3.14
-0.29
-0.99
-0.01
0.06
-0.02
0.02

> <PUBCHEM_SHAPE_SELFOVERLAP>
461.807

> <PUBCHEM_SHAPE_VOLUME>
157.1

> <PUBCHEM_COORDINATE_TYPE>
2
5
10

$$$$
