121349338
  -OEChem-11202009452D

244256  0     1  0  0  0  0  0999 V2000
   11.7284    1.4519    0.0000 O   0  0  0  0  0  0  0  0  0  0  0  0
    0.5357    6.6470    0.0000 O   0  0  0  0  0  0  0  0  0  0  0  0
   20.6534    4.5384    0.0000 O   0  0  0  0  0  0  0  0  0  0  0  0
   11.7284   11.8422    0.0000 O   0  0  0  0  0  0  0  0  0  0  0  0
   20.6534   14.9287    0.0000 O   0  0  0  0  0  0  0  0  0  0  0  0
   19.7990   13.4220    0.0000 O   0  0  0  0  0  0  0  0  0  0  0  0
   17.1214    3.5042    0.0000 C   0  0  1  0  0  0  0  0  0  0  0  0
   16.2554    3.0042    0.0000 C   0  0  1  0  0  0  0  0  0  0  0  0
    5.0628    8.1994    0.0000 C   0  0  1  0  0  0  0  0  0  0  0  0
    5.9288    8.6994    0.0000 C   0  0  1  0  0  0  0  0  0  0  0  0
   15.3894    3.5042    0.0000 C   0  0  1  0  0  0  0  0  0  0  0  0
   17.1214    4.5042    0.0000 C   0  0  1  0  0  0  0  0  0  0  0  0
    4.1968    8.6994    0.0000 C   0  0  1  0  0  0  0  0  0  0  0  0
    5.9288    9.6994    0.0000 C   0  0  1  0  0  0  0  0  0  0  0  0
   16.2554   13.3945    0.0000 C   0  0  1  0  0  0  0  0  0  0  0  0
   17.1214   13.8945    0.0000 C   0  0  1  0  0  0  0  0  0  0  0  0
   14.4794    2.9974    0.0000 C   0  0  2  0  0  0  0  0  0  0  0  0
   18.0154    5.0389    0.0000 C   0  0  2  0  0  0  0  0  0  0  0  0
    3.2868    8.1925    0.0000 C   0  0  2  0  0  0  0  0  0  0  0  0
   15.3894   13.8945    0.0000 C   0  0  1  0  0  0  0  0  0  0  0  0
    6.8228   10.2340    0.0000 C   0  0  2  0  0  0  0  0  0  0  0  0
   17.1214   14.8945    0.0000 C   0  0  1  0  0  0  0  0  0  0  0  0
   18.9214    4.5251    0.0000 C   0  0  1  0  0  0  0  0  0  0  0  0
   14.4794   13.3877    0.0000 C   0  0  2  0  0  0  0  0  0  0  0  0
    7.7288    9.7202    0.0000 C   0  0  1  0  0  0  0  0  0  0  0  0
   14.4714    1.9558    0.0000 C   0  0  1  0  0  0  0  0  0  0  0  0
    3.2787    7.1509    0.0000 C   0  0  1  0  0  0  0  0  0  0  0  0
   18.0154    2.9696    0.0000 C   0  0  0  0  0  0  0  0  0  0  0  0
   16.2715    1.9627    0.0000 C   0  0  0  0  0  0  0  0  0  0  0  0
   15.3894    4.5042    0.0000 C   0  0  0  0  0  0  0  0  0  0  0  0
   18.0154   15.4292    0.0000 C   0  0  2  0  0  0  0  0  0  0  0  0
   16.2554    5.0042    0.0000 C   0  0  0  0  0  0  0  0  0  0  0  0
    6.8228    8.1647    0.0000 C   0  0  0  0  0  0  0  0  0  0  0  0
    5.0789    7.1579    0.0000 C   0  0  0  0  0  0  0  0  0  0  0  0
    4.1968    9.6994    0.0000 C   0  0  0  0  0  0  0  0  0  0  0  0
    5.0628   10.1994    0.0000 C   0  0  0  0  0  0  0  0  0  0  0  0
   14.4714   12.3461    0.0000 C   0  0  1  0  0  0  0  0  0  0  0  0
   18.9214    3.4834    0.0000 C   0  0  0  0  0  0  0  0  0  0  0  0
   18.9214   14.9153    0.0000 C   0  0  1  0  0  0  0  0  0  0  0  0
   15.3734    1.4350    0.0000 C   0  0  0  0  0  0  0  0  0  0  0  0
    7.7288    8.6786    0.0000 C   0  0  0  0  0  0  0  0  0  0  0  0
   16.2715   12.3530    0.0000 C   0  0  0  0  0  0  0  0  0  0  0  0
   15.3894   14.8945    0.0000 C   0  0  0  0  0  0  0  0  0  0  0  0
    4.1808    6.6301    0.0000 C   0  0  0  0  0  0  0  0  0  0  0  0
   18.2255    6.0528    0.0000 C   0  0  1  0  0  0  0  0  0  0  0  0
   18.0154   13.3598    0.0000 C   0  0  0  0  0  0  0  0  0  0  0  0
   16.2554   15.3945    0.0000 C   0  0  0  0  0  0  0  0  0  0  0  0
    7.0329   11.2480    0.0000 C   0  0  1  0  0  0  0  0  0  0  0  0
   13.5359    1.4061    0.0000 C   0  0  0  0  0  0  0  0  0  0  0  0
    2.3433    6.6012    0.0000 C   0  0  0  0  0  0  0  0  0  0  0  0
   13.5525    3.5615    0.0000 C   0  0  0  0  0  0  0  0  0  0  0  0
   19.6838    5.2258    0.0000 C   0  0  0  0  0  0  0  0  0  0  0  0
   15.3734   11.8252    0.0000 C   0  0  0  0  0  0  0  0  0  0  0  0
   17.4635    2.5646    0.0000 C   0  0  0  0  0  0  0  0  0  0  0  0
   16.8982    2.2382    0.0000 C   0  0  0  0  0  0  0  0  0  0  0  0
    2.3599    8.7566    0.0000 C   0  0  0  0  0  0  0  0  0  0  0  0
    5.7056    7.4333    0.0000 C   0  0  0  0  0  0  0  0  0  0  0  0
    6.2709    7.7597    0.0000 C   0  0  0  0  0  0  0  0  0  0  0  0
   18.9214   13.8737    0.0000 C   0  0  0  0  0  0  0  0  0  0  0  0
    8.4912   10.4209    0.0000 C   0  0  0  0  0  0  0  0  0  0  0  0
   13.5359   11.7963    0.0000 C   0  0  0  0  0  0  0  0  0  0  0  0
   18.2255   16.4431    0.0000 C   0  0  1  0  0  0  0  0  0  0  0  0
   19.2545    6.1681    0.0000 C   0  0  0  0  0  0  0  0  0  0  0  0
   13.5525   13.9517    0.0000 C   0  0  0  0  0  0  0  0  0  0  0  0
    8.0619   11.3632    0.0000 C   0  0  0  0  0  0  0  0  0  0  0  0
   16.8982   12.6285    0.0000 C   0  0  0  0  0  0  0  0  0  0  0  0
   17.4636   12.9548    0.0000 C   0  0  0  0  0  0  0  0  0  0  0  0
   14.4871    3.9974    0.0000 C   0  0  0  0  0  0  0  0  0  0  0  0
    3.2945    9.1925    0.0000 C   0  0  0  0  0  0  0  0  0  0  0  0
   19.6838   15.6161    0.0000 C   0  0  0  0  0  0  0  0  0  0  0  0
   12.5963    1.9486    0.0000 C   0  0  2  0  0  0  0  0  0  0  0  0
    1.4037    7.1437    0.0000 C   0  0  2  0  0  0  0  0  0  0  0  0
   12.6047    3.0335    0.0000 C   0  0  0  0  0  0  0  0  0  0  0  0
   19.7913    4.0318    0.0000 C   0  0  0  0  0  0  0  0  0  0  0  0
    1.4120    8.2287    0.0000 C   0  0  0  0  0  0  0  0  0  0  0  0
   19.2545   16.5584    0.0000 C   0  0  0  0  0  0  0  0  0  0  0  0
   14.4871   14.3876    0.0000 C   0  0  0  0  0  0  0  0  0  0  0  0
    8.5987    9.2269    0.0000 C   0  0  0  0  0  0  0  0  0  0  0  0
   12.5963   12.3388    0.0000 C   0  0  2  0  0  0  0  0  0  0  0  0
   12.6047   13.4238    0.0000 C   0  0  0  0  0  0  0  0  0  0  0  0
   17.5519    6.7920    0.0000 C   0  0  0  0  0  0  0  0  0  0  0  0
   13.0393    0.5381    0.0000 C   0  0  0  0  0  0  0  0  0  0  0  0
   14.0393    0.5420    0.0000 C   0  0  0  0  0  0  0  0  0  0  0  0
    6.3593   11.9871    0.0000 C   0  0  0  0  0  0  0  0  0  0  0  0
   19.7913   14.4220    0.0000 C   0  0  0  0  0  0  0  0  0  0  0  0
    1.8467    5.7332    0.0000 C   0  0  0  0  0  0  0  0  0  0  0  0
    2.8466    5.7371    0.0000 C   0  0  0  0  0  0  0  0  0  0  0  0
   13.0393   10.9284    0.0000 C   0  0  0  0  0  0  0  0  0  0  0  0
   14.0393   10.9322    0.0000 C   0  0  0  0  0  0  0  0  0  0  0  0
   17.5519   17.1822    0.0000 C   0  0  0  0  0  0  0  0  0  0  0  0
   17.8552    7.7448    0.0000 C   0  0  0  0  0  0  0  0  0  0  0  0
    6.6626   12.9400    0.0000 C   0  0  0  0  0  0  0  0  0  0  0  0
   16.5750    6.5782    0.0000 C   0  0  0  0  0  0  0  0  0  0  0  0
    5.3824   11.7733    0.0000 C   0  0  0  0  0  0  0  0  0  0  0  0
   17.8552   18.1351    0.0000 C   0  0  0  0  0  0  0  0  0  0  0  0
   16.5750   16.9685    0.0000 C   0  0  0  0  0  0  0  0  0  0  0  0
   16.1255    3.9292    0.0000 H   0  0  0  0  0  0  0  0  0  0  0  0
   17.1149    5.3542    0.0000 H   0  0  0  0  0  0  0  0  0  0  0  0
    4.9329    9.1244    0.0000 H   0  0  0  0  0  0  0  0  0  0  0  0
    5.9223   10.5493    0.0000 H   0  0  0  0  0  0  0  0  0  0  0  0
   17.3226    5.5314    0.0000 H   0  0  0  0  0  0  0  0  0  0  0  0
   16.1255   14.3195    0.0000 H   0  0  0  0  0  0  0  0  0  0  0  0
    6.1300   10.7266    0.0000 H   0  0  0  0  0  0  0  0  0  0  0  0
   17.1149   15.7445    0.0000 H   0  0  0  0  0  0  0  0  0  0  0  0
   14.4746    1.1058    0.0000 H   0  0  0  0  0  0  0  0  0  0  0  0
    3.2820    6.3009    0.0000 H   0  0  0  0  0  0  0  0  0  0  0  0
   17.6108    2.4998    0.0000 H   0  0  0  0  0  0  0  0  0  0  0  0
   18.4090    2.4906    0.0000 H   0  0  0  0  0  0  0  0  0  0  0  0
   16.4895    1.3823    0.0000 H   0  0  0  0  0  0  0  0  0  0  0  0
   16.8806    2.0782    0.0000 H   0  0  0  0  0  0  0  0  0  0  0  0
   15.1773    5.0868    0.0000 H   0  0  0  0  0  0  0  0  0  0  0  0
   14.7788    4.3966    0.0000 H   0  0  0  0  0  0  0  0  0  0  0  0
   17.3226   15.9217    0.0000 H   0  0  0  0  0  0  0  0  0  0  0  0
   16.6539    5.4792    0.0000 H   0  0  0  0  0  0  0  0  0  0  0  0
   15.8569    5.4792    0.0000 H   0  0  0  0  0  0  0  0  0  0  0  0
    6.4182    7.6949    0.0000 H   0  0  0  0  0  0  0  0  0  0  0  0
    7.2164    7.6857    0.0000 H   0  0  0  0  0  0  0  0  0  0  0  0
    5.2969    6.5775    0.0000 H   0  0  0  0  0  0  0  0  0  0  0  0
    5.6880    7.2734    0.0000 H   0  0  0  0  0  0  0  0  0  0  0  0
    3.9847   10.2820    0.0000 H   0  0  0  0  0  0  0  0  0  0  0  0
    3.5862    9.5917    0.0000 H   0  0  0  0  0  0  0  0  0  0  0  0
    5.4613   10.6743    0.0000 H   0  0  0  0  0  0  0  0  0  0  0  0
    4.6643   10.6743    0.0000 H   0  0  0  0  0  0  0  0  0  0  0  0
   14.4746   11.4961    0.0000 H   0  0  0  0  0  0  0  0  0  0  0  0
   19.1305    2.8997    0.0000 H   0  0  0  0  0  0  0  0  0  0  0  0
   19.5323    3.5895    0.0000 H   0  0  0  0  0  0  0  0  0  0  0  0
   14.9761    0.9590    0.0000 H   0  0  0  0  0  0  0  0  0  0  0  0
   15.7744    0.9621    0.0000 H   0  0  0  0  0  0  0  0  0  0  0  0
    7.9379    8.0949    0.0000 H   0  0  0  0  0  0  0  0  0  0  0  0
    8.3397    8.7846    0.0000 H   0  0  0  0  0  0  0  0  0  0  0  0
   16.4895   11.7726    0.0000 H   0  0  0  0  0  0  0  0  0  0  0  0
   16.8806   12.4685    0.0000 H   0  0  0  0  0  0  0  0  0  0  0  0
   15.1773   15.4771    0.0000 H   0  0  0  0  0  0  0  0  0  0  0  0
   14.7788   14.7868    0.0000 H   0  0  0  0  0  0  0  0  0  0  0  0
    3.7835    6.1541    0.0000 H   0  0  0  0  0  0  0  0  0  0  0  0
    4.5818    6.1572    0.0000 H   0  0  0  0  0  0  0  0  0  0  0  0
   18.4440    6.6331    0.0000 H   0  0  0  0  0  0  0  0  0  0  0  0
   17.6108   12.8900    0.0000 H   0  0  0  0  0  0  0  0  0  0  0  0
   18.4090   12.8808    0.0000 H   0  0  0  0  0  0  0  0  0  0  0  0
   16.6539   15.8694    0.0000 H   0  0  0  0  0  0  0  0  0  0  0  0
   15.8569   15.8694    0.0000 H   0  0  0  0  0  0  0  0  0  0  0  0
    6.4349   11.0842    0.0000 H   0  0  0  0  0  0  0  0  0  0  0  0
   13.9608    4.0281    0.0000 H   0  0  0  0  0  0  0  0  0  0  0  0
   13.1626    4.0435    0.0000 H   0  0  0  0  0  0  0  0  0  0  0  0
   20.0531    4.7278    0.0000 H   0  0  0  0  0  0  0  0  0  0  0  0
   20.2178    5.5407    0.0000 H   0  0  0  0  0  0  0  0  0  0  0  0
   14.9761   11.3493    0.0000 H   0  0  0  0  0  0  0  0  0  0  0  0
   15.7744   11.3523    0.0000 H   0  0  0  0  0  0  0  0  0  0  0  0
   16.8810    2.3525    0.0000 H   0  0  0  0  0  0  0  0  0  0  0  0
   17.6757    1.9820    0.0000 H   0  0  0  0  0  0  0  0  0  0  0  0
   18.0461    2.7767    0.0000 H   0  0  0  0  0  0  0  0  0  0  0  0
   16.4232    1.8397    0.0000 H   0  0  0  0  0  0  0  0  0  0  0  0
   17.2967    1.7632    0.0000 H   0  0  0  0  0  0  0  0  0  0  0  0
   17.3731    2.6367    0.0000 H   0  0  0  0  0  0  0  0  0  0  0  0
    2.7681    9.2233    0.0000 H   0  0  0  0  0  0  0  0  0  0  0  0
    1.9700    9.2386    0.0000 H   0  0  0  0  0  0  0  0  0  0  0  0
    5.2306    7.0348    0.0000 H   0  0  0  0  0  0  0  0  0  0  0  0
    6.1041    6.9584    0.0000 H   0  0  0  0  0  0  0  0  0  0  0  0
    6.1805    7.8319    0.0000 H   0  0  0  0  0  0  0  0  0  0  0  0
   19.1305   13.2900    0.0000 H   0  0  0  0  0  0  0  0  0  0  0  0
   19.5323   13.9798    0.0000 H   0  0  0  0  0  0  0  0  0  0  0  0
    5.6884    7.5476    0.0000 H   0  0  0  0  0  0  0  0  0  0  0  0
    6.4831    7.1771    0.0000 H   0  0  0  0  0  0  0  0  0  0  0  0
    6.8535    7.9718    0.0000 H   0  0  0  0  0  0  0  0  0  0  0  0
    8.8604    9.9229    0.0000 H   0  0  0  0  0  0  0  0  0  0  0  0
    9.0252   10.7358    0.0000 H   0  0  0  0  0  0  0  0  0  0  0  0
   18.4440   17.0233    0.0000 H   0  0  0  0  0  0  0  0  0  0  0  0
   19.8426    6.3644    0.0000 H   0  0  0  0  0  0  0  0  0  0  0  0
   19.1211    6.7736    0.0000 H   0  0  0  0  0  0  0  0  0  0  0  0
   13.9608   14.4184    0.0000 H   0  0  0  0  0  0  0  0  0  0  0  0
   13.1626   14.4338    0.0000 H   0  0  0  0  0  0  0  0  0  0  0  0
    8.6500   11.5595    0.0000 H   0  0  0  0  0  0  0  0  0  0  0  0
    7.9285   11.9687    0.0000 H   0  0  0  0  0  0  0  0  0  0  0  0
   16.4233   12.2299    0.0000 H   0  0  0  0  0  0  0  0  0  0  0  0
   17.2967   12.1535    0.0000 H   0  0  0  0  0  0  0  0  0  0  0  0
   17.3731   13.0270    0.0000 H   0  0  0  0  0  0  0  0  0  0  0  0
   16.8810   12.7427    0.0000 H   0  0  0  0  0  0  0  0  0  0  0  0
   17.6757   12.3723    0.0000 H   0  0  0  0  0  0  0  0  0  0  0  0
   18.0461   13.1670    0.0000 H   0  0  0  0  0  0  0  0  0  0  0  0
   15.1071    3.9926    0.0000 H   0  0  0  0  0  0  0  0  0  0  0  0
   14.4919    4.6174    0.0000 H   0  0  0  0  0  0  0  0  0  0  0  0
   13.8671    4.0022    0.0000 H   0  0  0  0  0  0  0  0  0  0  0  0
    3.9145    9.1877    0.0000 H   0  0  0  0  0  0  0  0  0  0  0  0
    3.2993    9.8125    0.0000 H   0  0  0  0  0  0  0  0  0  0  0  0
    2.6745    9.1973    0.0000 H   0  0  0  0  0  0  0  0  0  0  0  0
   20.0531   15.1180    0.0000 H   0  0  0  0  0  0  0  0  0  0  0  0
   20.2178   15.9310    0.0000 H   0  0  0  0  0  0  0  0  0  0  0  0
   12.5951    1.3286    0.0000 H   0  0  0  0  0  0  0  0  0  0  0  0
    1.4025    6.5237    0.0000 H   0  0  0  0  0  0  0  0  0  0  0  0
   12.4001    3.6188    0.0000 H   0  0  0  0  0  0  0  0  0  0  0  0
   11.9930    2.9322    0.0000 H   0  0  0  0  0  0  0  0  0  0  0  0
   19.3964    3.5537    0.0000 H   0  0  0  0  0  0  0  0  0  0  0  0
   20.1935    3.5599    0.0000 H   0  0  0  0  0  0  0  0  0  0  0  0
    1.2075    8.8140    0.0000 H   0  0  0  0  0  0  0  0  0  0  0  0
    0.8004    8.1273    0.0000 H   0  0  0  0  0  0  0  0  0  0  0  0
   19.8426   16.7547    0.0000 H   0  0  0  0  0  0  0  0  0  0  0  0
   19.1211   17.1638    0.0000 H   0  0  0  0  0  0  0  0  0  0  0  0
   15.1071   14.3828    0.0000 H   0  0  0  0  0  0  0  0  0  0  0  0
   14.4919   15.0076    0.0000 H   0  0  0  0  0  0  0  0  0  0  0  0
   13.8671   14.3924    0.0000 H   0  0  0  0  0  0  0  0  0  0  0  0
    8.2928    8.6876    0.0000 H   0  0  0  0  0  0  0  0  0  0  0  0
    9.1380    8.9210    0.0000 H   0  0  0  0  0  0  0  0  0  0  0  0
    8.9045    9.7662    0.0000 H   0  0  0  0  0  0  0  0  0  0  0  0
   12.5951   11.7188    0.0000 H   0  0  0  0  0  0  0  0  0  0  0  0
   12.4001   14.0091    0.0000 H   0  0  0  0  0  0  0  0  0  0  0  0
   11.9930   13.3224    0.0000 H   0  0  0  0  0  0  0  0  0  0  0  0
   12.5011    0.8461    0.0000 H   0  0  0  0  0  0  0  0  0  0  0  0
   12.7313    0.0000    0.0000 H   0  0  0  0  0  0  0  0  0  0  0  0
   13.5774    0.2302    0.0000 H   0  0  0  0  0  0  0  0  0  0  0  0
   13.5035    0.2299    0.0000 H   0  0  0  0  0  0  0  0  0  0  0  0
   14.3513    0.0062    0.0000 H   0  0  0  0  0  0  0  0  0  0  0  0
   14.5750    0.8540    0.0000 H   0  0  0  0  0  0  0  0  0  0  0  0
    1.3085    6.0412    0.0000 H   0  0  0  0  0  0  0  0  0  0  0  0
    1.5387    5.1951    0.0000 H   0  0  0  0  0  0  0  0  0  0  0  0
    2.3848    5.4253    0.0000 H   0  0  0  0  0  0  0  0  0  0  0  0
    2.3109    5.4250    0.0000 H   0  0  0  0  0  0  0  0  0  0  0  0
    3.1587    5.2014    0.0000 H   0  0  0  0  0  0  0  0  0  0  0  0
    3.3824    6.0492    0.0000 H   0  0  0  0  0  0  0  0  0  0  0  0
   12.5011   11.2363    0.0000 H   0  0  0  0  0  0  0  0  0  0  0  0
   12.7313   10.3903    0.0000 H   0  0  0  0  0  0  0  0  0  0  0  0
   13.5774   10.6205    0.0000 H   0  0  0  0  0  0  0  0  0  0  0  0
   13.5035   10.6202    0.0000 H   0  0  0  0  0  0  0  0  0  0  0  0
   14.3513   10.3965    0.0000 H   0  0  0  0  0  0  0  0  0  0  0  0
   14.5750   11.2443    0.0000 H   0  0  0  0  0  0  0  0  0  0  0  0
   11.1926    1.7640    0.0000 H   0  0  0  0  0  0  0  0  0  0  0  0
    0.0000    6.9591    0.0000 H   0  0  0  0  0  0  0  0  0  0  0  0
   21.1928    4.2326    0.0000 H   0  0  0  0  0  0  0  0  0  0  0  0
   18.4460    7.5568    0.0000 H   0  0  0  0  0  0  0  0  0  0  0  0
   18.0433    8.3356    0.0000 H   0  0  0  0  0  0  0  0  0  0  0  0
   17.2645    7.9329    0.0000 H   0  0  0  0  0  0  0  0  0  0  0  0
    7.2534   12.7519    0.0000 H   0  0  0  0  0  0  0  0  0  0  0  0
    6.8507   13.5308    0.0000 H   0  0  0  0  0  0  0  0  0  0  0  0
    6.0718   13.1280    0.0000 H   0  0  0  0  0  0  0  0  0  0  0  0
   11.1926   12.1542    0.0000 H   0  0  0  0  0  0  0  0  0  0  0  0
   16.1574    7.0365    0.0000 H   0  0  0  0  0  0  0  0  0  0  0  0
   16.3870    5.9874    0.0000 H   0  0  0  0  0  0  0  0  0  0  0  0
    4.9648   12.2316    0.0000 H   0  0  0  0  0  0  0  0  0  0  0  0
    5.1944   11.1825    0.0000 H   0  0  0  0  0  0  0  0  0  0  0  0
   18.4460   17.9470    0.0000 H   0  0  0  0  0  0  0  0  0  0  0  0
   18.0433   18.7259    0.0000 H   0  0  0  0  0  0  0  0  0  0  0  0
   17.2645   18.3232    0.0000 H   0  0  0  0  0  0  0  0  0  0  0  0
   21.1928   14.6228    0.0000 H   0  0  0  0  0  0  0  0  0  0  0  0
   16.1574   17.4267    0.0000 H   0  0  0  0  0  0  0  0  0  0  0  0
   16.3870   16.3777    0.0000 H   0  0  0  0  0  0  0  0  0  0  0  0
 71  1  1  1  0  0  0
  1225  1  0  0  0  0
 72  2  1  1  0  0  0
  2226  1  0  0  0  0
  3 74  1  0  0  0  0
  3227  1  0  0  0  0
 79  4  1  1  0  0  0
  4234  1  0  0  0  0
  5 85  1  0  0  0  0
  5242  1  0  0  0  0
  6 85  2  0  0  0  0
  7  8  1  0  0  0  0
  7 12  1  0  0  0  0
  7 28  1  0  0  0  0
  7 54  1  6  0  0  0
  8 11  1  0  0  0  0
  8 29  1  0  0  0  0
  8 55  1  1  0  0  0
  9 10  1  0  0  0  0
  9 13  1  0  0  0  0
  9 34  1  0  0  0  0
  9 57  1  1  0  0  0
 10 14  1  0  0  0  0
 10 33  1  0  0  0  0
 10 58  1  6  0  0  0
 11 17  1  0  0  0  0
 11 30  1  0  0  0  0
 11 97  1  6  0  0  0
 12 18  1  0  0  0  0
 12 32  1  0  0  0  0
 12 98  1  1  0  0  0
 13 19  1  0  0  0  0
 13 35  1  0  0  0  0
 13 99  1  6  0  0  0
 14 21  1  0  0  0  0
 14 36  1  0  0  0  0
 14100  1  1  0  0  0
 15 16  1  0  0  0  0
 15 20  1  0  0  0  0
 15 42  1  0  0  0  0
 15 66  1  1  0  0  0
 16 22  1  0  0  0  0
 16 46  1  0  0  0  0
 16 67  1  6  0  0  0
 17 26  1  0  0  0  0
 17 51  1  0  0  0  0
 17 68  1  1  0  0  0
 18 23  1  0  0  0  0
 18 45  1  0  0  0  0
 18101  1  6  0  0  0
 19 27  1  0  0  0  0
 19 56  1  0  0  0  0
 19 69  1  1  0  0  0
 20 24  1  0  0  0  0
 20 43  1  0  0  0  0
 20102  1  6  0  0  0
 21 25  1  0  0  0  0
 21 48  1  0  0  0  0
 21103  1  6  0  0  0
 22 31  1  0  0  0  0
 22 47  1  0  0  0  0
 22104  1  1  0  0  0
 23 38  1  0  0  0  0
 23 52  1  0  0  0  0
 23 74  1  1  0  0  0
 24 37  1  0  0  0  0
 24 64  1  0  0  0  0
 24 77  1  1  0  0  0
 25 41  1  0  0  0  0
 25 60  1  0  0  0  0
 25 78  1  1  0  0  0
 26 40  1  0  0  0  0
 26 49  1  0  0  0  0
 26105  1  6  0  0  0
 27 44  1  0  0  0  0
 27 50  1  0  0  0  0
 27106  1  6  0  0  0
 28 38  1  0  0  0  0
 28107  1  0  0  0  0
 28108  1  0  0  0  0
 29 40  1  0  0  0  0
 29109  1  0  0  0  0
 29110  1  0  0  0  0
 30 32  1  0  0  0  0
 30111  1  0  0  0  0
 30112  1  0  0  0  0
 31 39  1  0  0  0  0
 31 62  1  0  0  0  0
 31113  1  6  0  0  0
 32114  1  0  0  0  0
 32115  1  0  0  0  0
 33 41  1  0  0  0  0
 33116  1  0  0  0  0
 33117  1  0  0  0  0
 34 44  1  0  0  0  0
 34118  1  0  0  0  0
 34119  1  0  0  0  0
 35 36  1  0  0  0  0
 35120  1  0  0  0  0
 35121  1  0  0  0  0
 36122  1  0  0  0  0
 36123  1  0  0  0  0
 37 53  1  0  0  0  0
 37 61  1  0  0  0  0
 37124  1  6  0  0  0
 38125  1  0  0  0  0
 38126  1  0  0  0  0
 39 59  1  0  0  0  0
 39 70  1  0  0  0  0
 39 85  1  1  0  0  0
 40127  1  0  0  0  0
 40128  1  0  0  0  0
 41129  1  0  0  0  0
 41130  1  0  0  0  0
 42 53  1  0  0  0  0
 42131  1  0  0  0  0
 42132  1  0  0  0  0
 43 47  1  0  0  0  0
 43133  1  0  0  0  0
 43134  1  0  0  0  0
 44135  1  0  0  0  0
 44136  1  0  0  0  0
 45 63  1  0  0  0  0
 45 81  1  6  0  0  0
 45137  1  0  0  0  0
 46 59  1  0  0  0  0
 46138  1  0  0  0  0
 46139  1  0  0  0  0
 47140  1  0  0  0  0
 47141  1  0  0  0  0
 48 65  1  0  0  0  0
 48 84  1  6  0  0  0
 48142  1  0  0  0  0
 49 71  1  0  0  0  0
 49 82  1  0  0  0  0
 49 83  1  0  0  0  0
 50 72  1  0  0  0  0
 50 86  1  0  0  0  0
 50 87  1  0  0  0  0
 51 73  1  0  0  0  0
 51143  1  0  0  0  0
 51144  1  0  0  0  0
 52 63  1  0  0  0  0
 52145  1  0  0  0  0
 52146  1  0  0  0  0
 53147  1  0  0  0  0
 53148  1  0  0  0  0
 54149  1  0  0  0  0
 54150  1  0  0  0  0
 54151  1  0  0  0  0
 55152  1  0  0  0  0
 55153  1  0  0  0  0
 55154  1  0  0  0  0
 56 75  1  0  0  0  0
 56155  1  0  0  0  0
 56156  1  0  0  0  0
 57157  1  0  0  0  0
 57158  1  0  0  0  0
 57159  1  0  0  0  0
 58162  1  0  0  0  0
 58163  1  0  0  0  0
 58164  1  0  0  0  0
 59160  1  0  0  0  0
 59161  1  0  0  0  0
 60 65  1  0  0  0  0
 60165  1  0  0  0  0
 60166  1  0  0  0  0
 61 79  1  0  0  0  0
 61 88  1  0  0  0  0
 61 89  1  0  0  0  0
 62 76  1  0  0  0  0
 62 90  1  6  0  0  0
 62167  1  0  0  0  0
 63168  1  0  0  0  0
 63169  1  0  0  0  0
 64 80  1  0  0  0  0
 64170  1  0  0  0  0
 64171  1  0  0  0  0
 65172  1  0  0  0  0
 65173  1  0  0  0  0
 66174  1  0  0  0  0
 66175  1  0  0  0  0
 66176  1  0  0  0  0
 67177  1  0  0  0  0
 67178  1  0  0  0  0
 67179  1  0  0  0  0
 68180  1  0  0  0  0
 68181  1  0  0  0  0
 68182  1  0  0  0  0
 69183  1  0  0  0  0
 69184  1  0  0  0  0
 69185  1  0  0  0  0
 70 76  1  0  0  0  0
 70186  1  0  0  0  0
 70187  1  0  0  0  0
 71 73  1  0  0  0  0
 71188  1  0  0  0  0
 72 75  1  0  0  0  0
 72189  1  0  0  0  0
 73190  1  0  0  0  0
 73191  1  0  0  0  0
 74192  1  0  0  0  0
 74193  1  0  0  0  0
 75194  1  0  0  0  0
 75195  1  0  0  0  0
 76196  1  0  0  0  0
 76197  1  0  0  0  0
 77198  1  0  0  0  0
 77199  1  0  0  0  0
 77200  1  0  0  0  0
 78201  1  0  0  0  0
 78202  1  0  0  0  0
 78203  1  0  0  0  0
 79 80  1  0  0  0  0
 79204  1  0  0  0  0
 80205  1  0  0  0  0
 80206  1  0  0  0  0
 81 91  1  0  0  0  0
 81 93  2  0  0  0  0
 82207  1  0  0  0  0
 82208  1  0  0  0  0
 82209  1  0  0  0  0
 83210  1  0  0  0  0
 83211  1  0  0  0  0
 83212  1  0  0  0  0
 84 92  1  0  0  0  0
 84 94  2  0  0  0  0
 86213  1  0  0  0  0
 86214  1  0  0  0  0
 86215  1  0  0  0  0
 87216  1  0  0  0  0
 87217  1  0  0  0  0
 87218  1  0  0  0  0
 88219  1  0  0  0  0
 88220  1  0  0  0  0
 88221  1  0  0  0  0
 89222  1  0  0  0  0
 89223  1  0  0  0  0
 89224  1  0  0  0  0
 90 95  1  0  0  0  0
 90 96  2  0  0  0  0
 91228  1  0  0  0  0
 91229  1  0  0  0  0
 91230  1  0  0  0  0
 92231  1  0  0  0  0
 92232  1  0  0  0  0
 92233  1  0  0  0  0
 93235  1  0  0  0  0
 93236  1  0  0  0  0
 94237  1  0  0  0  0
 94238  1  0  0  0  0
 95239  1  0  0  0  0
 95240  1  0  0  0  0
 95241  1  0  0  0  0
 96243  1  0  0  0  0
 96244  1  0  0  0  0
M  END
> <PUBCHEM_COMPOUND_CID>
121349338

> <PUBCHEM_COMPOUND_CANONICALIZED>
1

> <PUBCHEM_CACTVS_COMPLEXITY>
2410

> <PUBCHEM_CACTVS_HBOND_ACCEPTOR>
6

> <PUBCHEM_CACTVS_HBOND_DONOR>
5

> <PUBCHEM_CACTVS_ROTATABLE_BOND>
5

> <PUBCHEM_CACTVS_SUBSKEYS>
AAADcfB8OAAAAAAAAAAAAAAAAAAAAYMGAAAwYMGDAAAAAGDAAAAAGgAACAAADxSggAICCAAAAgCIAgDSCAAAAAAgAAAAAAEAAAgAEBIAAQAAQAAEgAAAAAGIyPCPgAAAAAAAAADAAAYAADAAAQAACAAAAA==

> <PUBCHEM_IUPAC_OPENEYE_NAME>
(1R,3aS,5aR,5bR,7aR,9S,11aR,11bR,13aR,13bR)-3a-(hydroxymethyl)-1-isopropenyl-5a,5b,8,8,11a-pentamethyl-1,2,3,4,5,6,7,7a,9,10,11,11b,12,13,13a,13b-hexadecahydrocyclopenta[a]chrysen-9-ol;(1R,3aS,5aR,5bR,7aR,9S,11aR,11bR,13aR,13bR)-9-hydroxy-1-isopropenyl-5a,5b,8,8,11a-pentamethyl-1,2,3,4,5,6,7,7a,9,10,11,11b,12,13,13a,13b-hexadecahydrocyclopenta[a]chrysene-3a-carboxylic acid;(1R,3aR,5aR,5bR,7aR,9S,11aR,11bR,13aR,13bR)-1-isopropenyl-3a,5a,5b,8,8,11a-hexamethyl-1,2,3,4,5,6,7,7a,9,10,11,11b,12,13,13a,13b-hexadecahydrocyclopenta[a]chrysen-9-ol

> <PUBCHEM_IUPAC_CAS_NAME>
(1R,3aR,5aR,5bR,7aR,9S,11aR,11bR,13aR,13bR)-3a,5a,5b,8,8,11a-hexamethyl-1-(1-methylethenyl)-1,2,3,4,5,6,7,7a,9,10,11,11b,12,13,13a,13b-hexadecahydrocyclopenta[a]chrysen-9-ol;(1R,3aS,5aR,5bR,7aR,9S,11aR,11bR,13aR,13bR)-3a-(hydroxymethyl)-5a,5b,8,8,11a-pentamethyl-1-(1-methylethenyl)-1,2,3,4,5,6,7,7a,9,10,11,11b,12,13,13a,13b-hexadecahydrocyclopenta[a]chrysen-9-ol;(1R,3aS,5aR,5bR,7aR,9S,11aR,11bR,13aR,13bR)-9-hydroxy-5a,5b,8,8,11a-pentamethyl-1-(1-methylethenyl)-1,2,3,4,5,6,7,7a,9,10,11,11b,12,13,13a,13b-hexadecahydrocyclopenta[a]chrysene-3a-carboxylic acid

> <PUBCHEM_IUPAC_NAME_MARKUP>
(1<I>R</I>,3<I>a</I><I>R</I>,5<I>a</I><I>R</I>,5<I>b</I><I>R</I>,7<I>a</I><I>R</I>,9<I>S</I>,11<I>a</I><I>R</I>,11<I>b</I><I>R</I>,13<I>a</I><I>R</I>,13<I>b</I><I>R</I>)-3<I>a</I>,5<I>a</I>,5<I>b</I>,8,8,11<I>a</I>-hexamethyl-1-prop-1-en-2-yl-1,2,3,4,5,6,7,7<I>a</I>,9,10,11,11<I>b</I>,12,13,13<I>a</I>,13<I>b</I>-hexadecahydrocyclopenta[a]chrysen-9-ol;(1<I>R</I>,3<I>a</I><I>S</I>,5<I>a</I><I>R</I>,5<I>b</I><I>R</I>,7<I>a</I><I>R</I>,9<I>S</I>,11<I>a</I><I>R</I>,11<I>b</I><I>R</I>,13<I>a</I><I>R</I>,13<I>b</I><I>R</I>)-3<I>a</I>-(hydroxymethyl)-5<I>a</I>,5<I>b</I>,8,8,11<I>a</I>-pentamethyl-1-prop-1-en-2-yl-1,2,3,4,5,6,7,7<I>a</I>,9,10,11,11<I>b</I>,12,13,13<I>a</I>,13<I>b</I>-hexadecahydrocyclopenta[a]chrysen-9-ol;(1<I>R</I>,3<I>a</I><I>S</I>,5<I>a</I><I>R</I>,5<I>b</I><I>R</I>,7<I>a</I><I>R</I>,9<I>S</I>,11<I>a</I><I>R</I>,11<I>b</I><I>R</I>,13<I>a</I><I>R</I>,13<I>b</I><I>R</I>)-9-hydroxy-5<I>a</I>,5<I>b</I>,8,8,11<I>a</I>-pentamethyl-1-prop-1-en-2-yl-1,2,3,4,5,6,7,7<I>a</I>,9,10,11,11<I>b</I>,12,13,13<I>a</I>,13<I>b</I>-hexadecahydrocyclopenta[a]chrysene-3<I>a</I>-carboxylic acid

> <PUBCHEM_IUPAC_NAME>
(1R,3aR,5aR,5bR,7aR,9S,11aR,11bR,13aR,13bR)-3a,5a,5b,8,8,11a-hexamethyl-1-prop-1-en-2-yl-1,2,3,4,5,6,7,7a,9,10,11,11b,12,13,13a,13b-hexadecahydrocyclopenta[a]chrysen-9-ol;(1R,3aS,5aR,5bR,7aR,9S,11aR,11bR,13aR,13bR)-3a-(hydroxymethyl)-5a,5b,8,8,11a-pentamethyl-1-prop-1-en-2-yl-1,2,3,4,5,6,7,7a,9,10,11,11b,12,13,13a,13b-hexadecahydrocyclopenta[a]chrysen-9-ol;(1R,3aS,5aR,5bR,7aR,9S,11aR,11bR,13aR,13bR)-9-hydroxy-5a,5b,8,8,11a-pentamethyl-1-prop-1-en-2-yl-1,2,3,4,5,6,7,7a,9,10,11,11b,12,13,13a,13b-hexadecahydrocyclopenta[a]chrysene-3a-carboxylic acid

> <PUBCHEM_IUPAC_SYSTEMATIC_NAME>
(1R,3aR,5aR,5bR,7aR,9S,11aR,11bR,13aR,13bR)-3a,5a,5b,8,8,11a-hexamethyl-1-prop-1-en-2-yl-1,2,3,4,5,6,7,7a,9,10,11,11b,12,13,13a,13b-hexadecahydrocyclopenta[a]chrysen-9-ol;(1R,3aS,5aR,5bR,7aR,9S,11aR,11bR,13aR,13bR)-5a,5b,8,8,11a-pentamethyl-9-oxidanyl-1-prop-1-en-2-yl-1,2,3,4,5,6,7,7a,9,10,11,11b,12,13,13a,13b-hexadecahydrocyclopenta[a]chrysene-3a-carboxylic acid;(1R,3aS,5aR,5bR,7aR,9S,11aR,11bR,13aR,13bR)-3a-(hydroxymethyl)-5a,5b,8,8,11a-pentamethyl-1-prop-1-en-2-yl-1,2,3,4,5,6,7,7a,9,10,11,11b,12,13,13a,13b-hexadecahydrocyclopenta[a]chrysen-9-ol

> <PUBCHEM_IUPAC_TRADITIONAL_NAME>
(1R,3aS,5aR,5bR,7aR,9S,11aR,11bR,13aR,13bR)-9-hydroxy-1-isopropenyl-5a,5b,8,8,11a-pentamethyl-1,2,3,4,5,6,7,7a,9,10,11,11b,12,13,13a,13b-hexadecahydrocyclopenta[a]chrysene-3a-carboxylic acid;(1R,3aR,5aR,5bR,7aR,9S,11aR,11bR,13aR,13bR)-1-isopropenyl-3a,5a,5b,8,8,11a-hexamethyl-1,2,3,4,5,6,7,7a,9,10,11,11b,12,13,13a,13b-hexadecahydrocyclopenta[a]chrysen-9-ol;(1R,3aS,5aR,5bR,7aR,9S,11aR,11bR,13aR,13bR)-1-isopropenyl-5a,5b,8,8,11a-pentamethyl-3a-methylol-1,2,3,4,5,6,7,7a,9,10,11,11b,12,13,13a,13b-hexadecahydrocyclopenta[a]chrysen-9-ol

> <PUBCHEM_IUPAC_INCHI>
InChI=1S/C30H48O3.C30H50O2.C30H50O/c1-18(2)19-10-15-30(25(32)33)17-16-28(6)20(24(19)30)8-9-22-27(5)13-12-23(31)26(3,4)21(27)11-14-29(22,28)7;1-19(2)20-10-15-30(18-31)17-16-28(6)21(25(20)30)8-9-23-27(5)13-12-24(32)26(3,4)22(27)11-14-29(23,28)7;1-19(2)20-11-14-27(5)17-18-29(7)21(25(20)27)9-10-23-28(6)15-13-24(31)26(3,4)22(28)12-16-30(23,29)8/h19-24,31H,1,8-17H2,2-7H3,(H,32,33);20-25,31-32H,1,8-18H2,2-7H3;20-25,31H,1,9-18H2,2-8H3/t19-,20+,21-,22+,23-,24+,27-,28+,29+,30-;20-,21+,22-,23+,24-,25+,27-,28+,29+,30+;20-,21+,22-,23+,24-,25+,27+,28-,29+,30+/m000/s1

> <PUBCHEM_IUPAC_INCHIKEY>
OTZWKESHEQZXBP-IUGIQOJASA-N

> <PUBCHEM_EXACT_MASS>
1325.127592

> <PUBCHEM_MOLECULAR_FORMULA>
C90H148O6

> <PUBCHEM_MOLECULAR_WEIGHT>
1326.1

> <PUBCHEM_OPENEYE_CAN_SMILES>
CC(=C)C1CCC2(C1C3CCC4C5(CCC(C(C5CCC4(C3(CC2)C)C)(C)C)O)C)C.CC(=C)C1CCC2(C1C3CCC4C5(CCC(C(C5CCC4(C3(CC2)C)C)(C)C)O)C)CO.CC(=C)C1CCC2(C1C3CCC4C5(CCC(C(C5CCC4(C3(CC2)C)C)(C)C)O)C)C(=O)O

> <PUBCHEM_OPENEYE_ISO_SMILES>
CC(=C)[C@@H]1CC[C@]2([C@H]1[C@H]3CC[C@@H]4[C@]5(CC[C@@H](C([C@@H]5CC[C@]4([C@@]3(CC2)C)C)(C)C)O)C)C.CC(=C)[C@@H]1CC[C@]2([C@H]1[C@H]3CC[C@@H]4[C@]5(CC[C@@H](C([C@@H]5CC[C@]4([C@@]3(CC2)C)C)(C)C)O)C)CO.CC(=C)[C@@H]1CC[C@]2([C@H]1[C@H]3CC[C@@H]4[C@]5(CC[C@@H](C([C@@H]5CC[C@]4([C@@]3(CC2)C)C)(C)C)O)C)C(=O)O

> <PUBCHEM_CACTVS_TPSA>
118

> <PUBCHEM_MONOISOTOPIC_WEIGHT>
1325.127592

> <PUBCHEM_TOTAL_CHARGE>
0

> <PUBCHEM_HEAVY_ATOM_COUNT>
96

> <PUBCHEM_ATOM_DEF_STEREO_COUNT>
30

> <PUBCHEM_ATOM_UDEF_STEREO_COUNT>
0

> <PUBCHEM_BOND_DEF_STEREO_COUNT>
0

> <PUBCHEM_BOND_UDEF_STEREO_COUNT>
0

> <PUBCHEM_ISOTOPIC_ATOM_COUNT>
0

> <PUBCHEM_COMPONENT_COUNT>
3

> <PUBCHEM_CACTVS_TAUTO_COUNT>
-1

> <PUBCHEM_COORDINATE_TYPE>
1
5
255

> <PUBCHEM_BONDANNOTATIONS>
71  1  5
10  58  6
11  97  6
12  98  5
13  99  6
14  100  5
15  66  5
16  67  6
17  68  5
18  101  6
19  69  5
72  2  5
20  102  6
21  103  6
22  104  5
23  74  5
24  77  5
25  78  5
26  105  6
27  106  6
31  113  6
37  124  6
39  85  5
79  4  5
45  81  6
48  84  6
62  90  6
7  54  6
8  55  5
9  57  5

$$$$
