87694060
  -OEChem-11202009352D

 50 50  0     0  0  0  0  0  0999 V2000
    1.4030    8.1200    0.0000 O   0  0  0  0  0  0  0  0  0  0  0  0
    4.8671    8.1200    0.0000 O   0  0  0  0  0  0  0  0  0  0  0  0
    4.8671    3.5000    0.0000 O   0  0  0  0  0  0  0  0  0  0  0  0
    1.4030    3.5000    0.0000 O   0  0  0  0  0  0  0  0  0  0  0  0
    3.1350    7.1200    0.0000 O   0  0  0  0  0  0  0  0  0  0  0  0
    3.1350    4.5000    0.0000 O   0  0  0  0  0  0  0  0  0  0  0  0
    2.2690    0.0000    0.0000 O   0  0  0  0  0  0  0  0  0  0  0  0
    4.8671   13.1200    0.0000 O   0  0  0  0  0  0  0  0  0  0  0  0
    3.1350   10.1200    0.0000 C   0  0  0  0  0  0  0  0  0  0  0  0
    2.2690    8.6200    0.0000 C   0  0  0  0  0  0  0  0  0  0  0  0
    4.0010    8.6200    0.0000 C   0  0  0  0  0  0  0  0  0  0  0  0
    3.1350    8.1200    0.0000 C   0  0  0  0  0  0  0  0  0  0  0  0
    2.2690    9.6200    0.0000 C   0  0  0  0  0  0  0  0  0  0  0  0
    4.0010    9.6200    0.0000 C   0  0  0  0  0  0  0  0  0  0  0  0
    4.0010    3.0000    0.0000 C   0  0  0  0  0  0  0  0  0  0  0  0
    2.2690    3.0000    0.0000 C   0  0  0  0  0  0  0  0  0  0  0  0
    3.1350    3.5000    0.0000 C   0  0  0  0  0  0  0  0  0  0  0  0
    3.1350    1.5000    0.0000 C   0  0  0  0  0  0  0  0  0  0  0  0
    4.0010    2.0000    0.0000 C   0  0  0  0  0  0  0  0  0  0  0  0
    2.2690    2.0000    0.0000 C   0  0  0  0  0  0  0  0  0  0  0  0
    3.1350   11.1200    0.0000 C   0  0  0  0  0  0  0  0  0  0  0  0
    3.1350    0.5000    0.0000 C   0  0  0  0  0  0  0  0  0  0  0  0
    4.0010   11.6200    0.0000 C   0  0  0  0  0  0  0  0  0  0  0  0
    0.5369    8.6200    0.0000 C   0  0  0  0  0  0  0  0  0  0  0  0
    5.7331    8.6200    0.0000 C   0  0  0  0  0  0  0  0  0  0  0  0
    5.7331    3.0000    0.0000 C   0  0  0  0  0  0  0  0  0  0  0  0
    0.5369    3.0000    0.0000 C   0  0  0  0  0  0  0  0  0  0  0  0
    4.0010   12.6200    0.0000 C   0  0  0  0  0  0  0  0  0  0  0  0
    1.7320    9.9300    0.0000 H   0  0  0  0  0  0  0  0  0  0  0  0
    4.5380    9.9300    0.0000 H   0  0  0  0  0  0  0  0  0  0  0  0
    4.5380    1.6900    0.0000 H   0  0  0  0  0  0  0  0  0  0  0  0
    1.7320    1.6900    0.0000 H   0  0  0  0  0  0  0  0  0  0  0  0
    2.5981   11.4300    0.0000 H   0  0  0  0  0  0  0  0  0  0  0  0
    3.6720    0.1900    0.0000 H   0  0  0  0  0  0  0  0  0  0  0  0
    4.5380   11.3100    0.0000 H   0  0  0  0  0  0  0  0  0  0  0  0
    2.5981    6.8100    0.0000 H   0  0  0  0  0  0  0  0  0  0  0  0
    0.8469    9.1569    0.0000 H   0  0  0  0  0  0  0  0  0  0  0  0
    0.0000    8.9300    0.0000 H   0  0  0  0  0  0  0  0  0  0  0  0
    0.2269    8.0831    0.0000 H   0  0  0  0  0  0  0  0  0  0  0  0
    6.0431    8.0831    0.0000 H   0  0  0  0  0  0  0  0  0  0  0  0
    6.2700    8.9300    0.0000 H   0  0  0  0  0  0  0  0  0  0  0  0
    5.4231    9.1569    0.0000 H   0  0  0  0  0  0  0  0  0  0  0  0
    3.6720    4.8100    0.0000 H   0  0  0  0  0  0  0  0  0  0  0  0
    5.4231    2.4631    0.0000 H   0  0  0  0  0  0  0  0  0  0  0  0
    6.2700    2.6900    0.0000 H   0  0  0  0  0  0  0  0  0  0  0  0
    6.0431    3.5369    0.0000 H   0  0  0  0  0  0  0  0  0  0  0  0
    0.2269    3.5369    0.0000 H   0  0  0  0  0  0  0  0  0  0  0  0
    0.0000    2.6900    0.0000 H   0  0  0  0  0  0  0  0  0  0  0  0
    0.8469    2.4631    0.0000 H   0  0  0  0  0  0  0  0  0  0  0  0
    3.4641   12.9300    0.0000 H   0  0  0  0  0  0  0  0  0  0  0  0
  1 10  1  0  0  0  0
  1 24  1  0  0  0  0
  2 11  1  0  0  0  0
  2 25  1  0  0  0  0
  3 15  1  0  0  0  0
  3 26  1  0  0  0  0
  4 16  1  0  0  0  0
  4 27  1  0  0  0  0
  5 12  1  0  0  0  0
  5 36  1  0  0  0  0
  6 17  1  0  0  0  0
  6 43  1  0  0  0  0
  7 22  2  0  0  0  0
  8 28  2  0  0  0  0
  9 13  2  0  0  0  0
  9 14  1  0  0  0  0
  9 21  1  0  0  0  0
 10 12  2  0  0  0  0
 10 13  1  0  0  0  0
 11 12  1  0  0  0  0
 11 14  2  0  0  0  0
 13 29  1  0  0  0  0
 14 30  1  0  0  0  0
 15 17  2  0  0  0  0
 15 19  1  0  0  0  0
 16 17  1  0  0  0  0
 16 20  2  0  0  0  0
 18 19  2  0  0  0  0
 18 20  1  0  0  0  0
 18 22  1  0  0  0  0
 19 31  1  0  0  0  0
 20 32  1  0  0  0  0
 21 23  2  0  0  0  0
 21 33  1  0  0  0  0
 22 34  1  0  0  0  0
 23 28  1  0  0  0  0
 23 35  1  0  0  0  0
 24 37  1  0  0  0  0
 24 38  1  0  0  0  0
 24 39  1  0  0  0  0
 25 40  1  0  0  0  0
 25 41  1  0  0  0  0
 25 42  1  0  0  0  0
 26 44  1  0  0  0  0
 26 45  1  0  0  0  0
 26 46  1  0  0  0  0
 27 47  1  0  0  0  0
 27 48  1  0  0  0  0
 27 49  1  0  0  0  0
 28 50  1  0  0  0  0
M  END
> <PUBCHEM_COMPOUND_CID>
87694060

> <PUBCHEM_COMPOUND_CANONICALIZED>
1

> <PUBCHEM_CACTVS_COMPLEXITY>
370

> <PUBCHEM_CACTVS_HBOND_ACCEPTOR>
8

> <PUBCHEM_CACTVS_HBOND_DONOR>
2

> <PUBCHEM_CACTVS_ROTATABLE_BOND>
7

> <PUBCHEM_CACTVS_SUBSKEYS>
AAADceB4PAAAAAAAAAAAAAAAAAAAAAAAAAAwYAAAAAAAAAABQAAAGgAACAAADASgmAIyBoAABgCIAihSgAACCAAkIAAIiAEGiMgNJzKGNRqAcSMlwBULuYeK7BzOIAABCAAAQABAAAIQAACAAAAAAAAAAA==

> <PUBCHEM_IUPAC_OPENEYE_NAME>
4-hydroxy-3,5-dimethoxy-benzaldehyde;(E)-3-(4-hydroxy-3,5-dimethoxy-phenyl)prop-2-enal

> <PUBCHEM_IUPAC_CAS_NAME>
4-hydroxy-3,5-dimethoxybenzaldehyde;(E)-3-(4-hydroxy-3,5-dimethoxyphenyl)-2-propenal

> <PUBCHEM_IUPAC_NAME_MARKUP>
4-hydroxy-3,5-dimethoxybenzaldehyde;(<I>E</I>)-3-(4-hydroxy-3,5-dimethoxyphenyl)prop-2-enal

> <PUBCHEM_IUPAC_NAME>
4-hydroxy-3,5-dimethoxybenzaldehyde;(E)-3-(4-hydroxy-3,5-dimethoxyphenyl)prop-2-enal

> <PUBCHEM_IUPAC_SYSTEMATIC_NAME>
3,5-dimethoxy-4-oxidanyl-benzaldehyde;(E)-3-(3,5-dimethoxy-4-oxidanyl-phenyl)prop-2-enal

> <PUBCHEM_IUPAC_TRADITIONAL_NAME>
4-hydroxy-3,5-dimethoxy-benzaldehyde;(E)-3-(4-hydroxy-3,5-dimethoxy-phenyl)acrolein

> <PUBCHEM_IUPAC_INCHI>
InChI=1S/C11H12O4.C9H10O4/c1-14-9-6-8(4-3-5-12)7-10(15-2)11(9)13;1-12-7-3-6(5-10)4-8(13-2)9(7)11/h3-7,13H,1-2H3;3-5,11H,1-2H3/b4-3+;

> <PUBCHEM_IUPAC_INCHIKEY>
YJDRQZQLMHSTGL-BJILWQEISA-N

> <PUBCHEM_EXACT_MASS>
390.131468

> <PUBCHEM_MOLECULAR_FORMULA>
C20H22O8

> <PUBCHEM_MOLECULAR_WEIGHT>
390.4

> <PUBCHEM_OPENEYE_CAN_SMILES>
COC1=CC(=CC(=C1O)OC)C=CC=O.COC1=CC(=CC(=C1O)OC)C=O

> <PUBCHEM_OPENEYE_ISO_SMILES>
COC1=CC(=CC(=C1O)OC)/C=C/C=O.COC1=CC(=CC(=C1O)OC)C=O

> <PUBCHEM_CACTVS_TPSA>
112

> <PUBCHEM_MONOISOTOPIC_WEIGHT>
390.131468

> <PUBCHEM_TOTAL_CHARGE>
0

> <PUBCHEM_HEAVY_ATOM_COUNT>
28

> <PUBCHEM_ATOM_DEF_STEREO_COUNT>
0

> <PUBCHEM_ATOM_UDEF_STEREO_COUNT>
0

> <PUBCHEM_BOND_DEF_STEREO_COUNT>
1

> <PUBCHEM_BOND_UDEF_STEREO_COUNT>
0

> <PUBCHEM_ISOTOPIC_ATOM_COUNT>
0

> <PUBCHEM_COMPONENT_COUNT>
2

> <PUBCHEM_CACTVS_TAUTO_COUNT>
-1

> <PUBCHEM_COORDINATE_TYPE>
1
5
255

> <PUBCHEM_BONDANNOTATIONS>
10  12  8
10  13  8
11  12  8
11  14  8
15  17  8
15  19  8
16  17  8
16  20  8
18  19  8
18  20  8
9  13  8
9  14  8

$$$$
