12443227
  -OEChem-11202010073D

 81 85  0     1  0  0  0  0  0999 V2000
    6.9617   -1.1344   -0.6202 O   0  0  0  0  0  0  0  0  0  0  0  0
    1.2459   -0.5272    0.0701 C   0  0  2  0  0  0  0  0  0  0  0  0
    2.7949   -0.6888    0.3934 C   0  0  2  0  0  0  0  0  0  0  0  0
    0.5825    0.8397    0.4473 C   0  0  2  0  0  0  0  0  0  0  0  0
   -1.6785   -0.3960   -0.2909 C   0  0  1  0  0  0  0  0  0  0  0  0
    3.5583    0.5161   -0.2525 C   0  0  2  0  0  0  0  0  0  0  0  0
   -3.2009   -0.1606    0.1281 C   0  0  1  0  0  0  0  0  0  0  0  0
   -0.8545    0.8982   -0.1570 C   0  0  0  0  0  0  0  0  0  0  0  0
    0.3961   -1.7556    0.4759 C   0  0  0  0  0  0  0  0  0  0  0  0
    1.4744    1.9793   -0.1313 C   0  0  0  0  0  0  0  0  0  0  0  0
   -3.7795    1.2669   -0.1973 C   0  0  1  0  0  0  0  0  0  0  0  0
   -1.0980   -1.4851    0.6448 C   0  0  0  0  0  0  0  0  0  0  0  0
    5.1364    0.4545   -0.1647 C   0  0  0  0  0  0  0  0  0  0  0  0
    2.9662    1.8666    0.1858 C   0  0  0  0  0  0  0  0  0  0  0  0
    3.3010   -2.0138   -0.2715 C   0  0  0  0  0  0  0  0  0  0  0  0
   -4.1422   -1.2875   -0.3738 C   0  0  0  0  0  0  0  0  0  0  0  0
   -2.8268    2.0996   -1.0843 C   0  0  0  0  0  0  0  0  0  0  0  0
    5.6376   -1.0201   -0.0987 C   0  0  1  0  0  0  0  0  0  0  0  0
    3.0524   -0.7834    1.9179 C   0  0  0  0  0  0  0  0  0  0  0  0
    0.4307    1.0636    1.9714 C   0  0  0  0  0  0  0  0  0  0  0  0
   -1.4183    2.0449   -0.5876 C   0  0  0  0  0  0  0  0  0  0  0  0
    4.7171   -1.9699   -0.8490 C   0  0  0  0  0  0  0  0  0  0  0  0
   -5.1511    1.1863   -0.9110 C   0  0  0  0  0  0  0  0  0  0  0  0
   -5.6157   -1.1412    0.0758 C   0  0  0  0  0  0  0  0  0  0  0  0
   -1.5752   -0.9021   -1.7557 C   0  0  0  0  0  0  0  0  0  0  0  0
   -6.1572    0.2815   -0.1995 C   0  0  0  0  0  0  0  0  0  0  0  0
   -3.9663    2.0416    1.1404 C   0  0  0  0  0  0  0  0  0  0  0  0
    5.7094    1.1611   -1.4252 C   0  0  0  0  0  0  0  0  0  0  0  0
    5.7171    1.2094    1.0526 C   0  0  0  0  0  0  0  0  0  0  0  0
   -6.4608   -2.1686   -0.7071 C   0  0  0  0  0  0  0  0  0  0  0  0
   -5.7568   -1.4748    1.5739 C   0  0  0  0  0  0  0  0  0  0  0  0
    1.2216   -0.5348   -1.0313 H   0  0  0  0  0  0  0  0  0  0  0  0
    3.3281    0.4428   -1.3285 H   0  0  0  0  0  0  0  0  0  0  0  0
   -3.2107   -0.2466    1.2240 H   0  0  0  0  0  0  0  0  0  0  0  0
    0.7528   -2.2170    1.4004 H   0  0  0  0  0  0  0  0  0  0  0  0
    0.5146   -2.5289   -0.2942 H   0  0  0  0  0  0  0  0  0  0  0  0
    1.1366    2.9560    0.2387 H   0  0  0  0  0  0  0  0  0  0  0  0
    1.3684    2.0059   -1.2250 H   0  0  0  0  0  0  0  0  0  0  0  0
   -1.6277   -2.4362    0.5099 H   0  0  0  0  0  0  0  0  0  0  0  0
   -1.2834   -1.2089    1.6902 H   0  0  0  0  0  0  0  0  0  0  0  0
    3.4751    2.6848   -0.3370 H   0  0  0  0  0  0  0  0  0  0  0  0
    3.1315    2.0449    1.2522 H   0  0  0  0  0  0  0  0  0  0  0  0
    2.6446   -2.3071   -1.1003 H   0  0  0  0  0  0  0  0  0  0  0  0
    3.2369   -2.8357    0.4537 H   0  0  0  0  0  0  0  0  0  0  0  0
   -4.1219   -1.3128   -1.4706 H   0  0  0  0  0  0  0  0  0  0  0  0
   -3.7656   -2.2632   -0.0445 H   0  0  0  0  0  0  0  0  0  0  0  0
   -3.1547    3.1476   -1.0940 H   0  0  0  0  0  0  0  0  0  0  0  0
   -2.8533    1.7754   -2.1308 H   0  0  0  0  0  0  0  0  0  0  0  0
    5.7129   -1.3538    0.9400 H   0  0  0  0  0  0  0  0  0  0  0  0
    4.0400   -1.1886    2.1475 H   0  0  0  0  0  0  0  0  0  0  0  0
    2.3460   -1.4467    2.4220 H   0  0  0  0  0  0  0  0  0  0  0  0
    2.9988    0.1829    2.4185 H   0  0  0  0  0  0  0  0  0  0  0  0
    0.1756    0.1494    2.5125 H   0  0  0  0  0  0  0  0  0  0  0  0
   -0.3527    1.7998    2.1912 H   0  0  0  0  0  0  0  0  0  0  0  0
    1.3377    1.4618    2.4310 H   0  0  0  0  0  0  0  0  0  0  0  0
   -0.8935    2.9922   -0.5458 H   0  0  0  0  0  0  0  0  0  0  0  0
    5.1422   -2.9814   -0.8588 H   0  0  0  0  0  0  0  0  0  0  0  0
    4.6703   -1.6764   -1.9062 H   0  0  0  0  0  0  0  0  0  0  0  0
   -5.0156    0.8202   -1.9376 H   0  0  0  0  0  0  0  0  0  0  0  0
   -5.5850    2.1900   -1.0087 H   0  0  0  0  0  0  0  0  0  0  0  0
   -1.9061   -1.9434   -1.8428 H   0  0  0  0  0  0  0  0  0  0  0  0
   -2.1879   -0.3090   -2.4409 H   0  0  0  0  0  0  0  0  0  0  0  0
   -0.5540   -0.8670   -2.1451 H   0  0  0  0  0  0  0  0  0  0  0  0
   -6.4738    0.7619    0.7341 H   0  0  0  0  0  0  0  0  0  0  0  0
   -7.0660    0.2377   -0.8137 H   0  0  0  0  0  0  0  0  0  0  0  0
   -4.3818    3.0403    0.9633 H   0  0  0  0  0  0  0  0  0  0  0  0
   -3.0168    2.1685    1.6719 H   0  0  0  0  0  0  0  0  0  0  0  0
   -4.6446    1.5226    1.8240 H   0  0  0  0  0  0  0  0  0  0  0  0
    5.4351    0.6273   -2.3417 H   0  0  0  0  0  0  0  0  0  0  0  0
    5.3331    2.1854   -1.5167 H   0  0  0  0  0  0  0  0  0  0  0  0
    6.8025    1.2321   -1.3924 H   0  0  0  0  0  0  0  0  0  0  0  0
    5.5146    2.2845    1.0020 H   0  0  0  0  0  0  0  0  0  0  0  0
    5.3113    0.8360    1.9965 H   0  0  0  0  0  0  0  0  0  0  0  0
    6.8066    1.0947    1.1005 H   0  0  0  0  0  0  0  0  0  0  0  0
   -6.1006   -3.1897   -0.5375 H   0  0  0  0  0  0  0  0  0  0  0  0
   -7.5130   -2.1319   -0.4025 H   0  0  0  0  0  0  0  0  0  0  0  0
   -6.4195   -1.9752   -1.7850 H   0  0  0  0  0  0  0  0  0  0  0  0
   -6.8065   -1.4373    1.8876 H   0  0  0  0  0  0  0  0  0  0  0  0
   -5.3825   -2.4814    1.7920 H   0  0  0  0  0  0  0  0  0  0  0  0
   -5.2027   -0.7728    2.2038 H   0  0  0  0  0  0  0  0  0  0  0  0
    6.9110   -1.1337   -1.5909 H   0  0  0  0  0  0  0  0  0  0  0  0
  1 18  1  0  0  0  0
  1 81  1  0  0  0  0
  2  3  1  0  0  0  0
  2  4  1  0  0  0  0
  2  9  1  0  0  0  0
  2 32  1  0  0  0  0
  3  6  1  0  0  0  0
  3 15  1  0  0  0  0
  3 19  1  0  0  0  0
  4  8  1  0  0  0  0
  4 10  1  0  0  0  0
  4 20  1  0  0  0  0
  5  7  1  0  0  0  0
  5  8  1  0  0  0  0
  5 12  1  0  0  0  0
  5 25  1  0  0  0  0
  6 13  1  0  0  0  0
  6 14  1  0  0  0  0
  6 33  1  0  0  0  0
  7 11  1  0  0  0  0
  7 16  1  0  0  0  0
  7 34  1  0  0  0  0
  8 21  2  0  0  0  0
  9 12  1  0  0  0  0
  9 35  1  0  0  0  0
  9 36  1  0  0  0  0
 10 14  1  0  0  0  0
 10 37  1  0  0  0  0
 10 38  1  0  0  0  0
 11 17  1  0  0  0  0
 11 23  1  0  0  0  0
 11 27  1  0  0  0  0
 12 39  1  0  0  0  0
 12 40  1  0  0  0  0
 13 18  1  0  0  0  0
 13 28  1  0  0  0  0
 13 29  1  0  0  0  0
 14 41  1  0  0  0  0
 14 42  1  0  0  0  0
 15 22  1  0  0  0  0
 15 43  1  0  0  0  0
 15 44  1  0  0  0  0
 16 24  1  0  0  0  0
 16 45  1  0  0  0  0
 16 46  1  0  0  0  0
 17 21  1  0  0  0  0
 17 47  1  0  0  0  0
 17 48  1  0  0  0  0
 18 22  1  0  0  0  0
 18 49  1  0  0  0  0
 19 50  1  0  0  0  0
 19 51  1  0  0  0  0
 19 52  1  0  0  0  0
 20 53  1  0  0  0  0
 20 54  1  0  0  0  0
 20 55  1  0  0  0  0
 21 56  1  0  0  0  0
 22 57  1  0  0  0  0
 22 58  1  0  0  0  0
 23 26  1  0  0  0  0
 23 59  1  0  0  0  0
 23 60  1  0  0  0  0
 24 26  1  0  0  0  0
 24 30  1  0  0  0  0
 24 31  1  0  0  0  0
 25 61  1  0  0  0  0
 25 62  1  0  0  0  0
 25 63  1  0  0  0  0
 26 64  1  0  0  0  0
 26 65  1  0  0  0  0
 27 66  1  0  0  0  0
 27 67  1  0  0  0  0
 27 68  1  0  0  0  0
 28 69  1  0  0  0  0
 28 70  1  0  0  0  0
 28 71  1  0  0  0  0
 29 72  1  0  0  0  0
 29 73  1  0  0  0  0
 29 74  1  0  0  0  0
 30 75  1  0  0  0  0
 30 76  1  0  0  0  0
 30 77  1  0  0  0  0
 31 78  1  0  0  0  0
 31 79  1  0  0  0  0
 31 80  1  0  0  0  0
M  END
> <PUBCHEM_COMPOUND_CID>
12443227

> <PUBCHEM_CONFORMER_RMSD>
0.8

> <PUBCHEM_CONFORMER_DIVERSEORDER>
3
1
2

> <PUBCHEM_MMFF94_PARTIAL_CHARGES>
9
1 -0.68
17 0.14
18 0.28
21 -0.29
4 0.14
5 0.14
56 0.15
8 -0.28
81 0.4

> <PUBCHEM_EFFECTIVE_ROTOR_COUNT>
2.6

> <PUBCHEM_PHARMACOPHORE_FEATURES>
9
1 1 acceptor
1 1 donor
3 13 28 29 hydrophobe
3 24 30 31 hydrophobe
6 2 3 4 6 10 14 rings
6 2 4 5 8 9 12 rings
6 3 6 13 15 18 22 rings
6 5 7 8 11 17 21 rings
6 7 11 16 23 24 26 rings

> <PUBCHEM_HEAVY_ATOM_COUNT>
31

> <PUBCHEM_ATOM_DEF_STEREO_COUNT>
8

> <PUBCHEM_ATOM_UDEF_STEREO_COUNT>
0

> <PUBCHEM_BOND_DEF_STEREO_COUNT>
0

> <PUBCHEM_BOND_UDEF_STEREO_COUNT>
0

> <PUBCHEM_ISOTOPIC_ATOM_COUNT>
0

> <PUBCHEM_COMPONENT_COUNT>
1

> <PUBCHEM_CACTVS_TAUTO_COUNT>
1

> <PUBCHEM_CONFORMER_ID>
00BDDE5B00000003

> <PUBCHEM_MMFF94_ENERGY>
155.7853

> <PUBCHEM_FEATURE_SELFOVERLAP>
45.73

> <PUBCHEM_SHAPE_FINGERPRINT>
10 15 18262790887196125216
10076449 9 18059864973876060518
10366900 7 17530402828347014529
10595046 47 18334576828345920396
11089746 13 11602819125012995627
11135609 12 17677351497433762123
11488393 25 17701270130860177271
11524674 6 16630807729433846375
11578080 2 13841420453100997596
11963148 33 18409158930894084546
12166972 35 18202004351946138504
12236239 1 18272371970694372049
12516196 113 18202844370012633337
12616971 3 14117512164377476683
12788726 201 18267581312997264792
13073987 5 18202846534887342112
13224815 77 18335692828289985041
13402501 40 18409449184851402790
13782708 43 18413671318129089351
13811026 1 18410567384346042495
14341114 176 18411985767193813003
14347332 77 18413103966208404853
14787075 74 18333731312515148859
14790565 3 18408889507700179124
14856354 85 16774078497016643477
14955137 171 18131632287631919945
15082195 135 18042979851139328716
15131766 46 15120940856138255129
15183329 4 18409451362758316572
15196674 1 18410011009433572308
17349148 13 13830130615476289083
17492 89 18195526991951418630
17844677 252 18271812310701749801
18335252 98 18336272318189005922
18608769 82 18336265738161802498
18681886 176 18410569609123316560
21033648 29 17202746125792148787
21130935 74 18202002127110945658
21236236 1 18410014317159686051
21267235 1 18335706070391609275
21279426 13 18338234856007316269
21682296 61 18201445718387389735
221357 26 18411697694630267076
22149856 69 18341344335331614545
22393880 68 18189047612461252548
23522609 53 18195559001883928113
23559900 14 18341604971254053345
23569943 247 18051134688422793098
24771750 20 17828495991721255764
3004659 81 18334295341133108750
335352 9 18408881812157839901
350125 39 18412544319100833673
4073 2 18113343020005914883
4093350 32 16271931558334496544
4098825 35 18408325463115205350
4325135 7 18187366528033495004
46194498 28 18186802508865871596
484989 97 18334868237872546434
497634 4 18412546479548797317
5104073 3 18339640044852749608
54039377 194 18271813359639719318
59755656 215 18261108577874668303
7495541 125 18272085015286813216
9996256 80 18411136939447559487

> <PUBCHEM_SHAPE_MULTIPOLES>
632.1
16.23
2.45
1.36
0.69
0.13
0.32
-4.2
-1.87
-0.73
-0.16
0.05
0.03
0.44

> <PUBCHEM_SHAPE_SELFOVERLAP>
1336.402

> <PUBCHEM_SHAPE_VOLUME>
350.2

> <PUBCHEM_COORDINATE_TYPE>
2
5
10

$$$$
