14825632
  -OEChem-11222012073D

 97102  0     1  0  0  0  0  0999 V2000
    0.1104    1.9116    1.2749 O   0  0  0  0  0  0  0  0  0  0  0  0
    2.2657    0.0328   -2.1886 O   0  0  0  0  0  0  0  0  0  0  0  0
   -7.8501   -0.9102   -0.4851 O   0  0  0  0  0  0  0  0  0  0  0  0
    5.8627   -1.2135   -0.2272 O   0  0  0  0  0  0  0  0  0  0  0  0
    7.2411    0.4937   -1.0206 O   0  0  0  0  0  0  0  0  0  0  0  0
  -10.0920   -1.1396   -0.4181 O   0  0  0  0  0  0  0  0  0  0  0  0
    7.3174   -1.2301    2.2001 O   0  0  0  0  0  0  0  0  0  0  0  0
   10.0904   -0.3071    1.8266 O   0  0  0  0  0  0  0  0  0  0  0  0
  -10.9059    0.7982    1.7109 O   0  0  0  0  0  0  0  0  0  0  0  0
   10.1363    2.2159    0.4167 O   0  0  0  0  0  0  0  0  0  0  0  0
    7.2900    2.6852   -2.6792 O   0  0  0  0  0  0  0  0  0  0  0  0
   -2.8854   -0.8654   -0.1658 C   0  0  1  0  0  0  0  0  0  0  0  0
   -2.0064    0.1030    0.6507 C   0  0  2  0  0  0  0  0  0  0  0  0
   -0.5873   -0.4248    0.9023 C   0  0  1  0  0  0  0  0  0  0  0  0
    0.1033   -0.7239   -0.4639 C   0  0  1  0  0  0  0  0  0  0  0  0
   -4.2113   -0.0656   -0.1575 C   0  0  2  0  0  0  0  0  0  0  0  0
   -2.2368   -1.0150   -1.5488 C   0  0  0  0  0  0  0  0  0  0  0  0
    1.5466   -1.3534   -0.2598 C   0  0  2  0  0  0  0  0  0  0  0  0
   -2.8764    0.4542    1.8541 C   0  0  0  0  0  0  0  0  0  0  0  0
   -0.7949   -1.5368   -1.4382 C   0  0  0  0  0  0  0  0  0  0  0  0
   -4.3097    0.4653    1.2918 C   0  0  0  0  0  0  0  0  0  0  0  0
    0.2667    0.5662    1.7212 C   0  0  1  0  0  0  0  0  0  0  0  0
   -5.4608   -0.8135   -0.6001 C   0  0  1  0  0  0  0  0  0  0  0  0
   -3.0683   -2.2569    0.4884 C   0  0  0  0  0  0  0  0  0  0  0  0
    2.3143   -0.6181    0.8514 C   0  0  0  0  0  0  0  0  0  0  0  0
    2.3599   -1.2650   -1.5961 C   0  0  2  0  0  0  0  0  0  0  0  0
    1.7269    0.2381    1.7055 C   0  0  0  0  0  0  0  0  0  0  0  0
    1.4457   -2.8428    0.1639 C   0  0  0  0  0  0  0  0  0  0  0  0
    3.7967   -0.8935    0.9684 C   0  0  0  0  0  0  0  0  0  0  0  0
    3.8425   -1.6211   -1.4439 C   0  0  0  0  0  0  0  0  0  0  0  0
   -6.7136   -0.1359   -0.0635 C   0  0  1  0  0  0  0  0  0  0  0  0
    4.5164   -0.7672   -0.3704 C   0  0  2  0  0  0  0  0  0  0  0  0
   -5.5207   -0.9139   -2.1244 C   0  0  0  0  0  0  0  0  0  0  0  0
   -6.8443    1.2849   -0.5826 C   0  0  0  0  0  0  0  0  0  0  0  0
   -8.1745    1.8442   -0.1587 C   0  0  0  0  0  0  0  0  0  0  0  0
    6.7286   -0.1427    0.1477 C   0  0  2  0  0  0  0  0  0  0  0  0
   -9.1040   -0.4213   -0.2984 C   0  0  0  0  0  0  0  0  0  0  0  0
   -9.2320    1.0294    0.0290 C   0  0  0  0  0  0  0  0  0  0  0  0
    7.8676   -0.7285    0.9822 C   0  0  1  0  0  0  0  0  0  0  0  0
   -8.1946    3.3386    0.0055 C   0  0  0  0  0  0  0  0  0  0  0  0
  -10.5926    1.4574    0.4992 C   0  0  0  0  0  0  0  0  0  0  0  0
    8.9247    0.3290    1.3005 C   0  0  2  0  0  0  0  0  0  0  0  0
    8.0986    1.5944   -0.7137 C   0  0  1  0  0  0  0  0  0  0  0  0
    9.3325    1.0993    0.0446 C   0  0  1  0  0  0  0  0  0  0  0  0
    8.4764    2.2644   -2.0309 C   0  0  0  0  0  0  0  0  0  0  0  0
   -1.9025    1.0325    0.0666 H   0  0  0  0  0  0  0  0  0  0  0  0
   -0.6463   -1.3530    1.4816 H   0  0  0  0  0  0  0  0  0  0  0  0
    0.2327    0.2585   -0.9426 H   0  0  0  0  0  0  0  0  0  0  0  0
   -4.0771    0.8158   -0.8031 H   0  0  0  0  0  0  0  0  0  0  0  0
   -2.2258   -0.0514   -2.0738 H   0  0  0  0  0  0  0  0  0  0  0  0
   -2.7951   -1.7112   -2.1796 H   0  0  0  0  0  0  0  0  0  0  0  0
   -2.6094    1.4257    2.2822 H   0  0  0  0  0  0  0  0  0  0  0  0
   -2.7812   -0.2948    2.6485 H   0  0  0  0  0  0  0  0  0  0  0  0
   -0.8397   -2.5865   -1.1343 H   0  0  0  0  0  0  0  0  0  0  0  0
   -0.3512   -1.5278   -2.4404 H   0  0  0  0  0  0  0  0  0  0  0  0
   -4.9123   -0.1764    1.9431 H   0  0  0  0  0  0  0  0  0  0  0  0
   -4.7148    1.4792    1.3430 H   0  0  0  0  0  0  0  0  0  0  0  0
   -0.0840    0.5348    2.7601 H   0  0  0  0  0  0  0  0  0  0  0  0
   -5.4823   -1.8366   -0.2099 H   0  0  0  0  0  0  0  0  0  0  0  0
   -3.6354   -2.2104    1.4233 H   0  0  0  0  0  0  0  0  0  0  0  0
   -2.1162   -2.7401    0.7234 H   0  0  0  0  0  0  0  0  0  0  0  0
   -3.5973   -2.9402   -0.1854 H   0  0  0  0  0  0  0  0  0  0  0  0
    1.9240   -1.9598   -2.3242 H   0  0  0  0  0  0  0  0  0  0  0  0
    2.3311    0.7372    2.4601 H   0  0  0  0  0  0  0  0  0  0  0  0
    1.0550   -3.4678   -0.6456 H   0  0  0  0  0  0  0  0  0  0  0  0
    0.7959   -2.9763    1.0348 H   0  0  0  0  0  0  0  0  0  0  0  0
    2.4176   -3.2707    0.4308 H   0  0  0  0  0  0  0  0  0  0  0  0
    4.2661   -0.2234    1.6994 H   0  0  0  0  0  0  0  0  0  0  0  0
    3.9510   -1.8997    1.3783 H   0  0  0  0  0  0  0  0  0  0  0  0
    4.3703   -1.4672   -2.3940 H   0  0  0  0  0  0  0  0  0  0  0  0
    3.9636   -2.6850   -1.2065 H   0  0  0  0  0  0  0  0  0  0  0  0
   -6.7442   -0.1579    1.0307 H   0  0  0  0  0  0  0  0  0  0  0  0
    4.4972    0.2778   -0.7113 H   0  0  0  0  0  0  0  0  0  0  0  0
   -5.2313    0.0179   -2.6212 H   0  0  0  0  0  0  0  0  0  0  0  0
   -6.5158   -1.1900   -2.4881 H   0  0  0  0  0  0  0  0  0  0  0  0
   -4.8526   -1.7000   -2.4842 H   0  0  0  0  0  0  0  0  0  0  0  0
    0.6145    2.4865    1.8761 H   0  0  0  0  0  0  0  0  0  0  0  0
   -6.8215    1.3314   -1.6776 H   0  0  0  0  0  0  0  0  0  0  0  0
   -6.0453    1.9323   -0.2164 H   0  0  0  0  0  0  0  0  0  0  0  0
    2.7341    0.0035   -3.0402 H   0  0  0  0  0  0  0  0  0  0  0  0
    6.1810    0.5937    0.7521 H   0  0  0  0  0  0  0  0  0  0  0  0
    8.3218   -1.5821    0.4653 H   0  0  0  0  0  0  0  0  0  0  0  0
   -7.6047    3.6265    0.8818 H   0  0  0  0  0  0  0  0  0  0  0  0
   -9.1921    3.7654    0.1164 H   0  0  0  0  0  0  0  0  0  0  0  0
   -7.7514    3.8152   -0.8762 H   0  0  0  0  0  0  0  0  0  0  0  0
    8.5718    1.0131    2.0813 H   0  0  0  0  0  0  0  0  0  0  0  0
  -11.3516    1.1907   -0.2442 H   0  0  0  0  0  0  0  0  0  0  0  0
  -10.6920    2.5288    0.6768 H   0  0  0  0  0  0  0  0  0  0  0  0
    7.5327    2.3209   -0.1146 H   0  0  0  0  0  0  0  0  0  0  0  0
    9.9444    0.4562   -0.5996 H   0  0  0  0  0  0  0  0  0  0  0  0
    6.9022   -0.4880    2.6719 H   0  0  0  0  0  0  0  0  0  0  0  0
    8.9868    1.5588   -2.6951 H   0  0  0  0  0  0  0  0  0  0  0  0
    9.1167    3.1367   -1.8689 H   0  0  0  0  0  0  0  0  0  0  0  0
   10.4184   -0.9358    1.1612 H   0  0  0  0  0  0  0  0  0  0  0  0
  -10.2533    1.0750    2.3769 H   0  0  0  0  0  0  0  0  0  0  0  0
    9.5979    2.7998    0.9777 H   0  0  0  0  0  0  0  0  0  0  0  0
    7.5534    3.1045   -3.5160 H   0  0  0  0  0  0  0  0  0  0  0  0
  1 22  1  0  0  0  0
  1 77  1  0  0  0  0
  2 26  1  0  0  0  0
  2 80  1  0  0  0  0
  3 31  1  0  0  0  0
  3 37  1  0  0  0  0
  4 32  1  0  0  0  0
  4 36  1  0  0  0  0
  5 36  1  0  0  0  0
  5 43  1  0  0  0  0
  6 37  2  0  0  0  0
  7 39  1  0  0  0  0
  7 91  1  0  0  0  0
  8 42  1  0  0  0  0
  8 94  1  0  0  0  0
  9 41  1  0  0  0  0
  9 95  1  0  0  0  0
 10 44  1  0  0  0  0
 10 96  1  0  0  0  0
 11 45  1  0  0  0  0
 11 97  1  0  0  0  0
 12 13  1  0  0  0  0
 12 16  1  0  0  0  0
 12 17  1  0  0  0  0
 12 24  1  0  0  0  0
 13 14  1  0  0  0  0
 13 19  1  0  0  0  0
 13 46  1  0  0  0  0
 14 15  1  0  0  0  0
 14 22  1  0  0  0  0
 14 47  1  0  0  0  0
 15 18  1  0  0  0  0
 15 20  1  0  0  0  0
 15 48  1  0  0  0  0
 16 21  1  0  0  0  0
 16 23  1  0  0  0  0
 16 49  1  0  0  0  0
 17 20  1  0  0  0  0
 17 50  1  0  0  0  0
 17 51  1  0  0  0  0
 18 25  1  0  0  0  0
 18 26  1  0  0  0  0
 18 28  1  0  0  0  0
 19 21  1  0  0  0  0
 19 52  1  0  0  0  0
 19 53  1  0  0  0  0
 20 54  1  0  0  0  0
 20 55  1  0  0  0  0
 21 56  1  0  0  0  0
 21 57  1  0  0  0  0
 22 27  1  0  0  0  0
 22 58  1  0  0  0  0
 23 31  1  0  0  0  0
 23 33  1  0  0  0  0
 23 59  1  0  0  0  0
 24 60  1  0  0  0  0
 24 61  1  0  0  0  0
 24 62  1  0  0  0  0
 25 27  2  0  0  0  0
 25 29  1  0  0  0  0
 26 30  1  0  0  0  0
 26 63  1  0  0  0  0
 27 64  1  0  0  0  0
 28 65  1  0  0  0  0
 28 66  1  0  0  0  0
 28 67  1  0  0  0  0
 29 32  1  0  0  0  0
 29 68  1  0  0  0  0
 29 69  1  0  0  0  0
 30 32  1  0  0  0  0
 30 70  1  0  0  0  0
 30 71  1  0  0  0  0
 31 34  1  0  0  0  0
 31 72  1  0  0  0  0
 32 73  1  0  0  0  0
 33 74  1  0  0  0  0
 33 75  1  0  0  0  0
 33 76  1  0  0  0  0
 34 35  1  0  0  0  0
 34 78  1  0  0  0  0
 34 79  1  0  0  0  0
 35 38  2  0  0  0  0
 35 40  1  0  0  0  0
 36 39  1  0  0  0  0
 36 81  1  0  0  0  0
 37 38  1  0  0  0  0
 38 41  1  0  0  0  0
 39 42  1  0  0  0  0
 39 82  1  0  0  0  0
 40 83  1  0  0  0  0
 40 84  1  0  0  0  0
 40 85  1  0  0  0  0
 41 87  1  0  0  0  0
 41 88  1  0  0  0  0
 42 44  1  0  0  0  0
 42 86  1  0  0  0  0
 43 44  1  0  0  0  0
 43 45  1  0  0  0  0
 43 89  1  0  0  0  0
 44 90  1  0  0  0  0
 45 92  1  0  0  0  0
 45 93  1  0  0  0  0
M  END
> <PUBCHEM_COMPOUND_CID>
14825632

> <PUBCHEM_CONFORMER_RMSD>
1.2

> <PUBCHEM_CONFORMER_DIVERSEORDER>
1
23
26
14
4
13
31
24
3
29
15
12
9
19
18
11
16
21
27
8
2
7
17
25
6
22
28
10
20
30
5

> <PUBCHEM_MMFF94_PARTIAL_CHARGES>
39
1 -0.68
10 -0.68
11 -0.68
18 0.14
2 -0.68
22 0.42
25 -0.28
26 0.28
27 -0.29
29 0.14
3 -0.43
31 0.28
32 0.28
34 0.14
35 -0.28
36 0.56
37 0.71
38 -0.12
39 0.28
4 -0.56
40 0.14
41 0.42
42 0.28
43 0.28
44 0.28
45 0.28
5 -0.56
6 -0.57
64 0.15
7 -0.68
77 0.4
8 -0.68
80 0.4
9 -0.68
91 0.4
94 0.4
95 0.4
96 0.4
97 0.4

> <PUBCHEM_EFFECTIVE_ROTOR_COUNT>
9.8

> <PUBCHEM_PHARMACOPHORE_FEATURES>
24
1 1 acceptor
1 1 donor
1 10 acceptor
1 10 donor
1 11 acceptor
1 11 donor
1 2 acceptor
1 2 donor
1 33 hydrophobe
1 4 acceptor
1 5 acceptor
1 6 acceptor
1 7 acceptor
1 7 donor
1 8 acceptor
1 8 donor
1 9 acceptor
1 9 donor
5 12 13 16 19 21 rings
6 12 13 14 15 17 20 rings
6 14 15 18 22 25 27 rings
6 18 25 26 29 30 32 rings
6 3 31 34 35 37 38 rings
6 5 36 39 42 43 44 rings

> <PUBCHEM_HEAVY_ATOM_COUNT>
45

> <PUBCHEM_ATOM_DEF_STEREO_COUNT>
16

> <PUBCHEM_ATOM_UDEF_STEREO_COUNT>
0

> <PUBCHEM_BOND_DEF_STEREO_COUNT>
0

> <PUBCHEM_BOND_UDEF_STEREO_COUNT>
0

> <PUBCHEM_ISOTOPIC_ATOM_COUNT>
0

> <PUBCHEM_COMPONENT_COUNT>
1

> <PUBCHEM_CACTVS_TAUTO_COUNT>
1

> <PUBCHEM_CONFORMER_ID>
00E238A000000001

> <PUBCHEM_MMFF94_ENERGY>
151.164

> <PUBCHEM_FEATURE_SELFOVERLAP>
121.971

> <PUBCHEM_SHAPE_FINGERPRINT>
10076449 9 17632857534269286441
10533779 47 15502377777262804688
11456790 92 14707213201432777973
11534866 41 11963384138390879880
11578821 258 18410857685318023060
12089408 11 18407757028446783991
12133447 93 16916517964272493728
12144603 126 18334008393466554986
12664476 115 18342171147550599553
12758862 56 12324246078670208575
13383668 254 18187944880078030017
13553643 46 17676485042609684316
13740195 50 17240489122154036833
13947947 19 17703785954960337869
13947947 74 17989205949637945899
14117953 113 16415477151809870477
14118638 360 16343709781312471211
14415361 349 14692562230394055684
150020 25 15554445219231528174
15064986 266 15769788927271958451
15131766 46 17534913185192695412
15198563 99 15123240914067282754
15247644 1 8286201660570489080
15289351 153 13912319067309462311
15439362 3 18055625372482001120
15840311 113 18113340795824804798
16087824 20 17346599639381670249
16728433 110 17240482516452007309
16728433 281 17843687656425513153
1754911 235 15123786288623903323
19315958 150 18186802448145901251
21895431 317 11095899133635960612
23576562 1 15338252675830641105
24771293 8 17561091271884018929
3092352 35 18259699008263035139
335352 9 17275098432507929207
3383291 50 13695587767823028448
4017518 198 14261351379303881477
45270241 37 18201163152853308206
4625314 4 15410603822330297767
5028188 123 14620785016880450829
5381727 24 13767927927621891865
54039377 194 9295287257201540171
54583773 228 18131353020606003041
57035037 87 18409450293317027036
6081469 158 17417815007022078742
6523845 18 13190339084577351709

> <PUBCHEM_SHAPE_MULTIPOLES>
861.52
38.99
2.34
1.92
4.88
0.83
0.39
23.29
-0.62
0.22
0.7
-3.13
0.36
-2.8

> <PUBCHEM_SHAPE_SELFOVERLAP>
1835.265

> <PUBCHEM_SHAPE_VOLUME>
472.4

> <PUBCHEM_COORDINATE_TYPE>
2
5
10

$$$$
