102236868
  -OEChem-11222012143D

 76 80  0     1  0  0  0  0  0999 V2000
    2.9797   -2.0448    2.0736 O   0  0  0  0  0  0  0  0  0  0  0  0
    3.6631    2.2608    1.4251 O   0  0  0  0  0  0  0  0  0  0  0  0
   -4.2104   -0.4843    0.8830 O   0  0  0  0  0  0  0  0  0  0  0  0
    7.6989    2.2039    0.1119 O   0  0  0  0  0  0  0  0  0  0  0  0
   -5.4102    0.5963    2.4563 O   0  0  0  0  0  0  0  0  0  0  0  0
   -7.4863    2.5378    0.9702 O   0  0  0  0  0  0  0  0  0  0  0  0
   -0.3587   -1.1552   -0.5562 C   0  0  1  0  0  0  0  0  0  0  0  0
    0.7647   -1.8276    0.2581 C   0  0  2  0  0  0  0  0  0  0  0  0
    2.1723   -1.3757   -0.1546 C   0  0  1  0  0  0  0  0  0  0  0  0
    2.2822    0.1733   -0.0076 C   0  0  1  0  0  0  0  0  0  0  0  0
   -1.5807   -1.8799    0.0599 C   0  0  2  0  0  0  0  0  0  0  0  0
   -0.2944    0.3506   -0.2665 C   0  0  0  0  0  0  0  0  0  0  0  0
    3.6941    0.7051   -0.5025 C   0  0  2  0  0  0  0  0  0  0  0  0
    0.4262   -3.3136    0.1836 C   0  0  0  0  0  0  0  0  0  0  0  0
    1.0798    0.9339   -0.6340 C   0  0  0  0  0  0  0  0  0  0  0  0
   -1.1132   -3.3492    0.1800 C   0  0  0  0  0  0  0  0  0  0  0  0
    3.2737   -2.0658    0.6777 C   0  0  1  0  0  0  0  0  0  0  0  0
   -2.9021   -1.7376   -0.6820 C   0  0  2  0  0  0  0  0  0  0  0  0
   -0.2711   -1.4064   -2.0818 C   0  0  0  0  0  0  0  0  0  0  0  0
    4.8294   -0.2032   -0.0018 C   0  0  0  0  0  0  0  0  0  0  0  0
    3.9280    2.1625    0.0230 C   0  0  2  0  0  0  0  0  0  0  0  0
    4.6154   -1.4190    0.5306 C   0  0  0  0  0  0  0  0  0  0  0  0
    3.7666    0.7177   -2.0526 C   0  0  0  0  0  0  0  0  0  0  0  0
    6.2429    0.3194   -0.1301 C   0  0  0  0  0  0  0  0  0  0  0  0
    5.3551    2.6773   -0.1930 C   0  0  0  0  0  0  0  0  0  0  0  0
   -3.5442   -0.3892   -0.3883 C   0  0  1  0  0  0  0  0  0  0  0  0
    6.3896    1.7344    0.4203 C   0  0  2  0  0  0  0  0  0  0  0  0
   -3.8576   -2.8717   -0.3108 C   0  0  0  0  0  0  0  0  0  0  0  0
   -4.5469   -0.0040   -1.4612 C   0  0  0  0  0  0  0  0  0  0  0  0
   -5.2666    1.2466   -1.0371 C   0  0  0  0  0  0  0  0  0  0  0  0
   -5.0217    0.5249    1.2943 C   0  0  0  0  0  0  0  0  0  0  0  0
   -5.4442    1.5253    0.2700 C   0  0  0  0  0  0  0  0  0  0  0  0
   -5.7559    2.0968   -2.1765 C   0  0  0  0  0  0  0  0  0  0  0  0
   -6.0975    2.7609    0.8194 C   0  0  0  0  0  0  0  0  0  0  0  0
    0.6325   -1.5363    1.3134 H   0  0  0  0  0  0  0  0  0  0  0  0
    2.3441   -1.6480   -1.2019 H   0  0  0  0  0  0  0  0  0  0  0  0
    2.2137    0.3687    1.0732 H   0  0  0  0  0  0  0  0  0  0  0  0
   -1.7200   -1.5168    1.0900 H   0  0  0  0  0  0  0  0  0  0  0  0
   -0.5033    0.5556    0.7906 H   0  0  0  0  0  0  0  0  0  0  0  0
   -1.0254    0.9031   -0.8626 H   0  0  0  0  0  0  0  0  0  0  0  0
    0.8345   -3.8699    1.0334 H   0  0  0  0  0  0  0  0  0  0  0  0
    0.8222   -3.7686   -0.7314 H   0  0  0  0  0  0  0  0  0  0  0  0
    1.1599    0.9457   -1.7247 H   0  0  0  0  0  0  0  0  0  0  0  0
    1.1017    1.9823   -0.3151 H   0  0  0  0  0  0  0  0  0  0  0  0
   -1.4285   -3.9690   -0.6658 H   0  0  0  0  0  0  0  0  0  0  0  0
   -1.4949   -3.8097    1.0978 H   0  0  0  0  0  0  0  0  0  0  0  0
    3.3419   -3.1156    0.3693 H   0  0  0  0  0  0  0  0  0  0  0  0
   -2.7350   -1.8222   -1.7603 H   0  0  0  0  0  0  0  0  0  0  0  0
   -0.4326   -2.4566   -2.3448 H   0  0  0  0  0  0  0  0  0  0  0  0
    0.6995   -1.1254   -2.4992 H   0  0  0  0  0  0  0  0  0  0  0  0
   -1.0167   -0.8112   -2.6210 H   0  0  0  0  0  0  0  0  0  0  0  0
    3.2339    2.8487   -0.4761 H   0  0  0  0  0  0  0  0  0  0  0  0
    5.4632   -2.0047    0.8797 H   0  0  0  0  0  0  0  0  0  0  0  0
    3.4987   -0.2530   -2.4818 H   0  0  0  0  0  0  0  0  0  0  0  0
    4.7681    0.9580   -2.4243 H   0  0  0  0  0  0  0  0  0  0  0  0
    3.0985    1.4712   -2.4820 H   0  0  0  0  0  0  0  0  0  0  0  0
    6.9623   -0.3323    0.3831 H   0  0  0  0  0  0  0  0  0  0  0  0
    6.5484    0.2955   -1.1840 H   0  0  0  0  0  0  0  0  0  0  0  0
    5.4737    3.6696    0.2610 H   0  0  0  0  0  0  0  0  0  0  0  0
    5.5605    2.8150   -1.2615 H   0  0  0  0  0  0  0  0  0  0  0  0
   -2.8133    0.4084   -0.2924 H   0  0  0  0  0  0  0  0  0  0  0  0
    6.2922    1.7191    1.5125 H   0  0  0  0  0  0  0  0  0  0  0  0
   -3.9218   -3.0201    0.7732 H   0  0  0  0  0  0  0  0  0  0  0  0
   -3.5529   -3.8220   -0.7603 H   0  0  0  0  0  0  0  0  0  0  0  0
   -4.8731   -2.6907   -0.6768 H   0  0  0  0  0  0  0  0  0  0  0  0
    3.6440   -2.5917    2.5272 H   0  0  0  0  0  0  0  0  0  0  0  0
   -5.2992   -0.7799   -1.6383 H   0  0  0  0  0  0  0  0  0  0  0  0
   -4.0128    0.1636   -2.4044 H   0  0  0  0  0  0  0  0  0  0  0  0
    3.7426    3.1968    1.6763 H   0  0  0  0  0  0  0  0  0  0  0  0
    7.7803    3.1030    0.4734 H   0  0  0  0  0  0  0  0  0  0  0  0
   -4.9072    2.5325   -2.7136 H   0  0  0  0  0  0  0  0  0  0  0  0
   -6.4090    2.9127   -1.8577 H   0  0  0  0  0  0  0  0  0  0  0  0
   -6.3327    1.4857   -2.8794 H   0  0  0  0  0  0  0  0  0  0  0  0
   -5.6729    3.0358    1.7913 H   0  0  0  0  0  0  0  0  0  0  0  0
   -5.9471    3.6235    0.1626 H   0  0  0  0  0  0  0  0  0  0  0  0
   -7.8719    3.3559    1.3272 H   0  0  0  0  0  0  0  0  0  0  0  0
  1 17  1  0  0  0  0
  1 66  1  0  0  0  0
  2 21  1  0  0  0  0
  2 69  1  0  0  0  0
  3 26  1  0  0  0  0
  3 31  1  0  0  0  0
  4 27  1  0  0  0  0
  4 70  1  0  0  0  0
  5 31  2  0  0  0  0
  6 34  1  0  0  0  0
  6 76  1  0  0  0  0
  7  8  1  0  0  0  0
  7 11  1  0  0  0  0
  7 12  1  0  0  0  0
  7 19  1  0  0  0  0
  8  9  1  0  0  0  0
  8 14  1  0  0  0  0
  8 35  1  0  0  0  0
  9 10  1  0  0  0  0
  9 17  1  0  0  0  0
  9 36  1  0  0  0  0
 10 13  1  0  0  0  0
 10 15  1  0  0  0  0
 10 37  1  0  0  0  0
 11 16  1  0  0  0  0
 11 18  1  0  0  0  0
 11 38  1  0  0  0  0
 12 15  1  0  0  0  0
 12 39  1  0  0  0  0
 12 40  1  0  0  0  0
 13 20  1  0  0  0  0
 13 21  1  0  0  0  0
 13 23  1  0  0  0  0
 14 16  1  0  0  0  0
 14 41  1  0  0  0  0
 14 42  1  0  0  0  0
 15 43  1  0  0  0  0
 15 44  1  0  0  0  0
 16 45  1  0  0  0  0
 16 46  1  0  0  0  0
 17 22  1  0  0  0  0
 17 47  1  0  0  0  0
 18 26  1  0  0  0  0
 18 28  1  0  0  0  0
 18 48  1  0  0  0  0
 19 49  1  0  0  0  0
 19 50  1  0  0  0  0
 19 51  1  0  0  0  0
 20 22  2  0  0  0  0
 20 24  1  0  0  0  0
 21 25  1  0  0  0  0
 21 52  1  0  0  0  0
 22 53  1  0  0  0  0
 23 54  1  0  0  0  0
 23 55  1  0  0  0  0
 23 56  1  0  0  0  0
 24 27  1  0  0  0  0
 24 57  1  0  0  0  0
 24 58  1  0  0  0  0
 25 27  1  0  0  0  0
 25 59  1  0  0  0  0
 25 60  1  0  0  0  0
 26 29  1  0  0  0  0
 26 61  1  0  0  0  0
 27 62  1  0  0  0  0
 28 63  1  0  0  0  0
 28 64  1  0  0  0  0
 28 65  1  0  0  0  0
 29 30  1  0  0  0  0
 29 67  1  0  0  0  0
 29 68  1  0  0  0  0
 30 32  2  0  0  0  0
 30 33  1  0  0  0  0
 31 32  1  0  0  0  0
 32 34  1  0  0  0  0
 33 71  1  0  0  0  0
 33 72  1  0  0  0  0
 33 73  1  0  0  0  0
 34 74  1  0  0  0  0
 34 75  1  0  0  0  0
M  END
> <PUBCHEM_COMPOUND_CID>
102236868

> <PUBCHEM_CONFORMER_RMSD>
0.8

> <PUBCHEM_CONFORMER_DIVERSEORDER>
1
3
9
8
7
5
2
4
6

> <PUBCHEM_MMFF94_PARTIAL_CHARGES>
25
1 -0.68
13 0.14
17 0.42
2 -0.68
20 -0.28
21 0.28
22 -0.29
24 0.14
26 0.28
27 0.28
29 0.14
3 -0.43
30 -0.28
31 0.71
32 -0.12
33 0.14
34 0.42
4 -0.68
5 -0.57
53 0.15
6 -0.68
66 0.4
69 0.4
70 0.4
76 0.4

> <PUBCHEM_EFFECTIVE_ROTOR_COUNT>
5.6

> <PUBCHEM_PHARMACOPHORE_FEATURES>
15
1 1 acceptor
1 1 donor
1 2 acceptor
1 2 donor
1 28 hydrophobe
1 4 acceptor
1 4 donor
1 5 acceptor
1 6 acceptor
1 6 donor
5 7 8 11 14 16 rings
6 13 20 21 24 25 27 rings
6 3 26 29 30 31 32 rings
6 7 8 9 10 12 15 rings
6 9 10 13 17 20 22 rings

> <PUBCHEM_HEAVY_ATOM_COUNT>
34

> <PUBCHEM_ATOM_DEF_STEREO_COUNT>
11

> <PUBCHEM_ATOM_UDEF_STEREO_COUNT>
0

> <PUBCHEM_BOND_DEF_STEREO_COUNT>
0

> <PUBCHEM_BOND_UDEF_STEREO_COUNT>
0

> <PUBCHEM_ISOTOPIC_ATOM_COUNT>
0

> <PUBCHEM_COMPONENT_COUNT>
1

> <PUBCHEM_CACTVS_TAUTO_COUNT>
1

> <PUBCHEM_CONFORMER_ID>
061802C400000001

> <PUBCHEM_MMFF94_ENERGY>
114.6073

> <PUBCHEM_FEATURE_SELFOVERLAP>
76.219

> <PUBCHEM_SHAPE_FINGERPRINT>
10 15 17967533480137437249
10319926 262 16298962944333941903
10674148 151 18337672027727112904
10906281 52 17823145687057305590
12107183 9 18265890263887002258
12422481 6 17458062638461969591
12788726 201 17775008959859935448
13690498 29 17344338110745075039
13782708 43 10737547437750501516
14020679 6 17313390079552914336
14118638 360 18337946900236880807
14394314 77 18409731776609969712
14790565 3 18409448111204667286
14950920 106 15357700833476937829
15021287 119 16878501353641567852
15183329 4 18202844357143763356
15238133 3 18201428191158436138
15400415 2 18335978787734603918
15840311 113 18337397028653405101
16112460 7 18342178825828694057
18393751 57 18261963926103730075
18608769 82 18340488997607397339
20511986 3 18341319076839819258
20691028 202 18412546492449685945
20739085 24 18041851618347286670
21033648 144 18335410271297956135
21033648 29 17676204637643318445
21279426 13 18341898498061522782
21421861 104 17822837716227048618
22122407 14 18339931394571534617
23522609 53 17678189389671645036
23559900 14 18202004361084302542
23569914 2 16985424426942414448
2838139 119 18130785651136450317
350125 39 18334572417889261172
3552219 110 17987801943095487523
4144715 1 18337117859980141546
4169191 19 18410008862214129948
44802255 64 16988005032598693052
5104073 3 18113896074101764603
57724786 102 18197219144735893955
6086070 43 17845646062025607368
6328613 192 18412543223731159928
636775 72 18125717031714459112
7226269 152 18273500082467317224
7495541 125 12829482684404343350
7970288 3 8646187244009133545
9896288 288 18044662133900125818

> <PUBCHEM_SHAPE_MULTIPOLES>
664.49
18.08
3.71
1.58
3.38
0.91
-0.12
-17.87
2.85
0.86
0.5
1.72
-0.36
-0.86

> <PUBCHEM_SHAPE_SELFOVERLAP>
1421.019

> <PUBCHEM_SHAPE_VOLUME>
364.2

> <PUBCHEM_COORDINATE_TYPE>
2
5
10

$$$$
