102139051
  -OEChem-11222012063D

 93 98  0     1  0  0  0  0  0999 V2000
    5.7538    2.4997    0.7611 O   0  0  0  0  0  0  0  0  0  0  0  0
    7.9945    2.2149    2.3804 O   0  0  0  0  0  0  0  0  0  0  0  0
   -1.9213   -1.7066    0.0678 O   0  0  0  0  0  0  0  0  0  0  0  0
    7.8684   -1.7887   -2.3007 O   0  0  0  0  0  0  0  0  0  0  0  0
   -4.1005   -2.2363    0.2984 O   0  0  0  0  0  0  0  0  0  0  0  0
   -5.8418    0.3477   -0.4619 O   0  0  0  0  0  0  0  0  0  0  0  0
   -7.7959   -0.5024    0.4883 O   0  0  0  0  0  0  0  0  0  0  0  0
   -7.3793    2.2857   -1.8360 O   0  0  0  0  0  0  0  0  0  0  0  0
  -10.1307    1.3565   -2.3330 O   0  0  0  0  0  0  0  0  0  0  0  0
  -11.3288    0.3869    0.1126 O   0  0  0  0  0  0  0  0  0  0  0  0
   -8.7840   -1.7608    2.7234 O   0  0  0  0  0  0  0  0  0  0  0  0
    2.9848   -0.8742    0.1169 C   0  0  1  0  0  0  0  0  0  0  0  0
    3.7196    0.3725    0.6527 C   0  0  2  0  0  0  0  0  0  0  0  0
    5.2076    0.1172    0.9274 C   0  0  1  0  0  0  0  0  0  0  0  0
    1.5521   -0.2946    0.0187 C   0  0  2  0  0  0  0  0  0  0  0  0
    5.9022   -0.2994   -0.4216 C   0  0  2  0  0  0  0  0  0  0  0  0
    3.6219   -1.2438   -1.2274 C   0  0  0  0  0  0  0  0  0  0  0  0
    2.8281    0.8483    1.7965 C   0  0  0  0  0  0  0  0  0  0  0  0
    1.3998    0.5254    1.3207 C   0  0  0  0  0  0  0  0  0  0  0  0
    5.1388   -1.4743   -1.0983 C   0  0  0  0  0  0  0  0  0  0  0  0
    7.4495   -0.5392   -0.2377 C   0  0  1  0  0  0  0  0  0  0  0  0
    5.8980    1.3325    1.5741 C   0  0  1  0  0  0  0  0  0  0  0  0
    0.4232   -1.2943   -0.1866 C   0  0  1  0  0  0  0  0  0  0  0  0
    3.0269   -2.0970    1.0672 C   0  0  0  0  0  0  0  0  0  0  0  0
    7.3922    1.0692    1.7811 C   0  0  1  0  0  0  0  0  0  0  0  0
    8.0380    0.7018    0.4567 C   0  0  0  0  0  0  0  0  0  0  0  0
   -0.9084   -0.7024    0.2529 C   0  0  1  0  0  0  0  0  0  0  0  0
    7.7663   -1.7938    0.6069 C   0  0  0  0  0  0  0  0  0  0  0  0
    8.1224   -0.7944   -1.6178 C   0  0  0  0  0  0  0  0  0  0  0  0
    0.3522   -1.7392   -1.6476 C   0  0  0  0  0  0  0  0  0  0  0  0
    9.0008    1.4538   -0.1039 C   0  0  0  0  0  0  0  0  0  0  0  0
   -1.2626    0.5333   -0.5551 C   0  0  0  0  0  0  0  0  0  0  0  0
    9.1432    0.1424   -2.1419 C   0  0  0  0  0  0  0  0  0  0  0  0
    9.5436    1.1739   -1.4002 C   0  0  0  0  0  0  0  0  0  0  0  0
   -2.6546    0.9749   -0.1955 C   0  0  0  0  0  0  0  0  0  0  0  0
   -3.2313   -1.3746    0.2082 C   0  0  0  0  0  0  0  0  0  0  0  0
   -3.5724    0.0786    0.2187 C   0  0  0  0  0  0  0  0  0  0  0  0
   -2.8985    2.4495   -0.3593 C   0  0  0  0  0  0  0  0  0  0  0  0
   -4.9736    0.3997    0.6537 C   0  0  0  0  0  0  0  0  0  0  0  0
   -7.1894    0.6465   -0.0988 C   0  0  2  0  0  0  0  0  0  0  0  0
   -7.9379    1.0591   -1.3661 C   0  0  1  0  0  0  0  0  0  0  0  0
   -9.4296    1.2527   -1.0928 C   0  0  2  0  0  0  0  0  0  0  0  0
   -9.1431   -0.2616    0.8985 C   0  0  1  0  0  0  0  0  0  0  0  0
  -10.0089    0.0676   -0.3199 C   0  0  1  0  0  0  0  0  0  0  0  0
   -9.6350   -1.5128    1.6193 C   0  0  0  0  0  0  0  0  0  0  0  0
    3.6663    1.1546   -0.1224 H   0  0  0  0  0  0  0  0  0  0  0  0
    5.3002   -0.7071    1.6425 H   0  0  0  0  0  0  0  0  0  0  0  0
    1.5387    0.4308   -0.8091 H   0  0  0  0  0  0  0  0  0  0  0  0
    5.7982    0.5509   -1.1145 H   0  0  0  0  0  0  0  0  0  0  0  0
    3.4487   -0.4478   -1.9629 H   0  0  0  0  0  0  0  0  0  0  0  0
    3.1815   -2.1550   -1.6408 H   0  0  0  0  0  0  0  0  0  0  0  0
    2.9473    1.9186    1.9924 H   0  0  0  0  0  0  0  0  0  0  0  0
    3.0527    0.3147    2.7271 H   0  0  0  0  0  0  0  0  0  0  0  0
    0.9148   -0.0357    2.1263 H   0  0  0  0  0  0  0  0  0  0  0  0
    0.8452    1.4554    1.1712 H   0  0  0  0  0  0  0  0  0  0  0  0
    5.3147   -2.4050   -0.5495 H   0  0  0  0  0  0  0  0  0  0  0  0
    5.5168   -1.6337   -2.1124 H   0  0  0  0  0  0  0  0  0  0  0  0
    5.4431    1.5656    2.5442 H   0  0  0  0  0  0  0  0  0  0  0  0
    0.5638   -2.1968    0.4175 H   0  0  0  0  0  0  0  0  0  0  0  0
    2.4918   -1.9193    2.0052 H   0  0  0  0  0  0  0  0  0  0  0  0
    2.5792   -2.9777    0.5932 H   0  0  0  0  0  0  0  0  0  0  0  0
    4.0457   -2.3878    1.3358 H   0  0  0  0  0  0  0  0  0  0  0  0
    7.5349    0.2459    2.4892 H   0  0  0  0  0  0  0  0  0  0  0  0
   -0.9158   -0.4847    1.3259 H   0  0  0  0  0  0  0  0  0  0  0  0
    7.4759   -2.7169    0.0932 H   0  0  0  0  0  0  0  0  0  0  0  0
    7.2607   -1.7944    1.5764 H   0  0  0  0  0  0  0  0  0  0  0  0
    8.8439   -1.8716    0.7988 H   0  0  0  0  0  0  0  0  0  0  0  0
    0.4794   -0.9082   -2.3491 H   0  0  0  0  0  0  0  0  0  0  0  0
   -0.5924   -2.2374   -1.8888 H   0  0  0  0  0  0  0  0  0  0  0  0
    1.1313   -2.4738   -1.8642 H   0  0  0  0  0  0  0  0  0  0  0  0
    4.8279    2.7887    0.8158 H   0  0  0  0  0  0  0  0  0  0  0  0
    9.3896    2.3412    0.3848 H   0  0  0  0  0  0  0  0  0  0  0  0
   -1.2672    0.3378   -1.6337 H   0  0  0  0  0  0  0  0  0  0  0  0
   -0.5648    1.3543   -0.3799 H   0  0  0  0  0  0  0  0  0  0  0  0
    7.5360    2.3817    3.2216 H   0  0  0  0  0  0  0  0  0  0  0  0
    9.5651   -0.0496   -3.1215 H   0  0  0  0  0  0  0  0  0  0  0  0
   10.3008    1.8525   -1.7797 H   0  0  0  0  0  0  0  0  0  0  0  0
   -2.3235    3.0120    0.3832 H   0  0  0  0  0  0  0  0  0  0  0  0
   -3.9503    2.7275   -0.2547 H   0  0  0  0  0  0  0  0  0  0  0  0
   -2.5843    2.7731   -1.3577 H   0  0  0  0  0  0  0  0  0  0  0  0
   -5.0123    1.3936    1.1150 H   0  0  0  0  0  0  0  0  0  0  0  0
   -5.3050   -0.3064    1.4255 H   0  0  0  0  0  0  0  0  0  0  0  0
   -7.1932    1.4774    0.6208 H   0  0  0  0  0  0  0  0  0  0  0  0
   -7.7858    0.3179   -2.1597 H   0  0  0  0  0  0  0  0  0  0  0  0
   -9.6114    2.1933   -0.5598 H   0  0  0  0  0  0  0  0  0  0  0  0
   -9.1449    0.5674    1.6193 H   0  0  0  0  0  0  0  0  0  0  0  0
  -10.0836   -0.8034   -0.9824 H   0  0  0  0  0  0  0  0  0  0  0  0
   -9.5889   -2.3862    0.9602 H   0  0  0  0  0  0  0  0  0  0  0  0
  -10.6587   -1.3893    1.9855 H   0  0  0  0  0  0  0  0  0  0  0  0
   -7.5014    2.9576   -1.1437 H   0  0  0  0  0  0  0  0  0  0  0  0
   -9.9739    0.5407   -2.8384 H   0  0  0  0  0  0  0  0  0  0  0  0
  -11.2720    1.1505    0.7120 H   0  0  0  0  0  0  0  0  0  0  0  0
   -9.1124   -2.5626    3.1647 H   0  0  0  0  0  0  0  0  0  0  0  0
  1 22  1  0  0  0  0
  1 71  1  0  0  0  0
  2 25  1  0  0  0  0
  2 75  1  0  0  0  0
  3 27  1  0  0  0  0
  3 36  1  0  0  0  0
  4 29  2  0  0  0  0
  5 36  2  0  0  0  0
  6 39  1  0  0  0  0
  6 40  1  0  0  0  0
  7 40  1  0  0  0  0
  7 43  1  0  0  0  0
  8 41  1  0  0  0  0
  8 90  1  0  0  0  0
  9 42  1  0  0  0  0
  9 91  1  0  0  0  0
 10 44  1  0  0  0  0
 10 92  1  0  0  0  0
 11 45  1  0  0  0  0
 11 93  1  0  0  0  0
 12 13  1  0  0  0  0
 12 15  1  0  0  0  0
 12 17  1  0  0  0  0
 12 24  1  0  0  0  0
 13 14  1  0  0  0  0
 13 18  1  0  0  0  0
 13 46  1  0  0  0  0
 14 16  1  0  0  0  0
 14 22  1  0  0  0  0
 14 47  1  0  0  0  0
 15 19  1  0  0  0  0
 15 23  1  0  0  0  0
 15 48  1  0  0  0  0
 16 20  1  0  0  0  0
 16 21  1  0  0  0  0
 16 49  1  0  0  0  0
 17 20  1  0  0  0  0
 17 50  1  0  0  0  0
 17 51  1  0  0  0  0
 18 19  1  0  0  0  0
 18 52  1  0  0  0  0
 18 53  1  0  0  0  0
 19 54  1  0  0  0  0
 19 55  1  0  0  0  0
 20 56  1  0  0  0  0
 20 57  1  0  0  0  0
 21 26  1  0  0  0  0
 21 28  1  0  0  0  0
 21 29  1  0  0  0  0
 22 25  1  0  0  0  0
 22 58  1  0  0  0  0
 23 27  1  0  0  0  0
 23 30  1  0  0  0  0
 23 59  1  0  0  0  0
 24 60  1  0  0  0  0
 24 61  1  0  0  0  0
 24 62  1  0  0  0  0
 25 26  1  0  0  0  0
 25 63  1  0  0  0  0
 26 31  2  0  0  0  0
 27 32  1  0  0  0  0
 27 64  1  0  0  0  0
 28 65  1  0  0  0  0
 28 66  1  0  0  0  0
 28 67  1  0  0  0  0
 29 33  1  0  0  0  0
 30 68  1  0  0  0  0
 30 69  1  0  0  0  0
 30 70  1  0  0  0  0
 31 34  1  0  0  0  0
 31 72  1  0  0  0  0
 32 35  1  0  0  0  0
 32 73  1  0  0  0  0
 32 74  1  0  0  0  0
 33 34  2  0  0  0  0
 33 76  1  0  0  0  0
 34 77  1  0  0  0  0
 35 37  2  0  0  0  0
 35 38  1  0  0  0  0
 36 37  1  0  0  0  0
 37 39  1  0  0  0  0
 38 78  1  0  0  0  0
 38 79  1  0  0  0  0
 38 80  1  0  0  0  0
 39 81  1  0  0  0  0
 39 82  1  0  0  0  0
 40 41  1  0  0  0  0
 40 83  1  0  0  0  0
 41 42  1  0  0  0  0
 41 84  1  0  0  0  0
 42 44  1  0  0  0  0
 42 85  1  0  0  0  0
 43 44  1  0  0  0  0
 43 45  1  0  0  0  0
 43 86  1  0  0  0  0
 44 87  1  0  0  0  0
 45 88  1  0  0  0  0
 45 89  1  0  0  0  0
M  END
> <PUBCHEM_COMPOUND_CID>
102139051

> <PUBCHEM_CONFORMER_RMSD>
1.2

> <PUBCHEM_CONFORMER_DIVERSEORDER>
1
92
77
75
64
91
29
27
71
61
66
52
44
73
18
46
41
67
26
59
68
84
74
9
62
31
85
8
81
20
55
78
23
90
94
39
13
70
69
35
19
93
48
32
33
45
83
47
6
4
88
82
7
36
34
89
63
76
38
95
17
40
43
28
56
25
24
50
72
37
53
49
22
57
65
79
16
86
87
54
5
12
51
2
11
58
21
3
30
15
80
42
10
14
60

> <PUBCHEM_MMFF94_PARTIAL_CHARGES>
41
1 -0.68
10 -0.68
11 -0.68
2 -0.68
21 0.2
22 0.28
25 0.42
26 -0.28
27 0.28
29 0.49
3 -0.43
31 -0.15
32 0.14
33 -0.14
34 -0.15
35 -0.28
36 0.71
37 -0.12
38 0.14
39 0.42
4 -0.57
40 0.56
41 0.28
42 0.28
43 0.28
44 0.28
45 0.28
5 -0.57
6 -0.56
7 -0.56
71 0.4
72 0.15
75 0.4
76 0.15
77 0.15
8 -0.68
9 -0.68
90 0.4
91 0.4
92 0.4
93 0.4

> <PUBCHEM_EFFECTIVE_ROTOR_COUNT>
9.2

> <PUBCHEM_PHARMACOPHORE_FEATURES>
23
1 1 acceptor
1 1 donor
1 10 acceptor
1 10 donor
1 11 acceptor
1 11 donor
1 2 acceptor
1 2 donor
1 30 hydrophobe
1 4 acceptor
1 5 acceptor
1 6 acceptor
1 7 acceptor
1 8 acceptor
1 8 donor
1 9 acceptor
1 9 donor
5 12 13 15 18 19 rings
6 12 13 14 16 17 20 rings
6 14 16 21 22 25 26 rings
6 21 26 29 31 33 34 rings
6 3 27 32 35 36 37 rings
6 7 40 41 42 43 44 rings

> <PUBCHEM_HEAVY_ATOM_COUNT>
45

> <PUBCHEM_ATOM_DEF_STEREO_COUNT>
15

> <PUBCHEM_ATOM_UDEF_STEREO_COUNT>
0

> <PUBCHEM_BOND_DEF_STEREO_COUNT>
0

> <PUBCHEM_BOND_UDEF_STEREO_COUNT>
0

> <PUBCHEM_ISOTOPIC_ATOM_COUNT>
0

> <PUBCHEM_COMPONENT_COUNT>
1

> <PUBCHEM_CACTVS_TAUTO_COUNT>
1

> <PUBCHEM_CONFORMER_ID>
061684AB00000001

> <PUBCHEM_MMFF94_ENERGY>
153.0281

> <PUBCHEM_FEATURE_SELFOVERLAP>
116.908

> <PUBCHEM_SHAPE_FINGERPRINT>
10076449 9 18343303656937253249
10162869 55 14851609911671994219
11146346 60 17312813876090091723
11607047 141 17240755153050706954
12013929 94 17603875537781141683
12089408 11 16153425047840178347
12098696 120 18413102870495878882
12144603 126 15864074286103134467
12522641 33 17203612571199494919
12664476 115 18272929423812588080
12728208 25 14345791643514114665
13811026 1 18343864407344991297
13947947 74 18272368654911009313
14118638 360 18188490164192119680
14937079 2 18341048600821595673
150020 25 18343866623785440718
15064986 266 18130515137243548081
15065858 18 17531246145587176755
15183329 4 17060342925272293882
15392192 104 17022623087675292466
15461852 350 17458068166723130443
15510794 2 18333732408201704147
15530121 191 18408034118183569925
15840311 113 18059857285979857996
16728433 110 18272369789674074593
1754911 235 17917989473690025501
17686467 74 18408885123382952529
19841028 212 17168697523340069723
20105231 36 18343303660694390783
21362267 313 16298656179846279792
232437 2 14189575234894358773
23576562 1 17774147049875230948
24771293 8 18412547575203456901
4625314 4 18060133288608895759
6126387 218 12468352454153595959
6201320 215 14201942490898714527
6691757 9 16515695433906957721

> <PUBCHEM_SHAPE_MULTIPOLES>
861.52
42.07
2.14
1.94
60.74
0.12
0.04
8.43
6.4
-1.36
-0.11
-0.32
0.13
5.28

> <PUBCHEM_SHAPE_SELFOVERLAP>
1848.013

> <PUBCHEM_SHAPE_VOLUME>
469.4

> <PUBCHEM_COORDINATE_TYPE>
2
5
10

$$$$
