102139042
  -OEChem-11222012103D

 97102  0     1  0  0  0  0  0999 V2000
    0.1039   -1.6302   -1.5018 O   0  0  0  0  0  0  0  0  0  0  0  0
    2.1979   -0.2982    2.1406 O   0  0  0  0  0  0  0  0  0  0  0  0
   -7.9093    1.0342    0.4144 O   0  0  0  0  0  0  0  0  0  0  0  0
    5.8094    1.1607    0.4542 O   0  0  0  0  0  0  0  0  0  0  0  0
    7.1531   -0.6715    0.9852 O   0  0  0  0  0  0  0  0  0  0  0  0
  -10.1462    1.3043    0.3323 O   0  0  0  0  0  0  0  0  0  0  0  0
    7.2584    1.4978   -1.9531 O   0  0  0  0  0  0  0  0  0  0  0  0
   -7.9852   -3.8849    0.4704 O   0  0  0  0  0  0  0  0  0  0  0  0
   10.0120    0.4732   -1.7321 O   0  0  0  0  0  0  0  0  0  0  0  0
   10.0073   -2.2275   -0.7017 O   0  0  0  0  0  0  0  0  0  0  0  0
    7.1591   -3.0802    2.3094 O   0  0  0  0  0  0  0  0  0  0  0  0
   -2.9398    0.9609    0.1939 C   0  0  1  0  0  0  0  0  0  0  0  0
   -2.0539    0.1013   -0.7300 C   0  0  2  0  0  0  0  0  0  0  0  0
   -0.6236    0.6380   -0.8769 C   0  0  1  0  0  0  0  0  0  0  0  0
    0.0395    0.7360    0.5315 C   0  0  1  0  0  0  0  0  0  0  0  0
   -4.2744    0.1890    0.0479 C   0  0  2  0  0  0  0  0  0  0  0  0
   -2.3209    0.9092    1.5975 C   0  0  0  0  0  0  0  0  0  0  0  0
    1.4943    1.3664    0.4462 C   0  0  2  0  0  0  0  0  0  0  0  0
   -2.9007   -0.0683   -1.9880 C   0  0  0  0  0  0  0  0  0  0  0  0
   -0.8708    1.4203    1.5898 C   0  0  0  0  0  0  0  0  0  0  0  0
   -4.3463   -0.1356   -1.4625 C   0  0  0  0  0  0  0  0  0  0  0  0
    0.2371   -0.2429   -1.8071 C   0  0  1  0  0  0  0  0  0  0  0  0
   -5.5245    0.8873    0.5638 C   0  0  1  0  0  0  0  0  0  0  0  0
   -3.0920    2.4319   -0.2652 C   0  0  0  0  0  0  0  0  0  0  0  0
    2.2781    0.7807   -0.7401 C   0  0  0  0  0  0  0  0  0  0  0  0
    2.2765    1.0818    1.7736 C   0  0  2  0  0  0  0  0  0  0  0  0
    1.7002    0.0590   -1.7162 C   0  0  0  0  0  0  0  0  0  0  0  0
    1.4190    2.9016    0.2326 C   0  0  0  0  0  0  0  0  0  0  0  0
    3.7659    1.0479   -0.7874 C   0  0  0  0  0  0  0  0  0  0  0  0
    3.7659    1.4351    1.7029 C   0  0  0  0  0  0  0  0  0  0  0  0
   -6.7730    0.3086   -0.0867 C   0  0  1  0  0  0  0  0  0  0  0  0
    4.4543    0.7286    0.5358 C   0  0  2  0  0  0  0  0  0  0  0  0
   -5.6174    0.7777    2.0858 C   0  0  0  0  0  0  0  0  0  0  0  0
   -6.9322   -1.1680    0.2283 C   0  0  0  0  0  0  0  0  0  0  0  0
   -8.2590   -1.6437   -0.2963 C   0  0  0  0  0  0  0  0  0  0  0  0
    6.6515    0.1376   -0.0761 C   0  0  2  0  0  0  0  0  0  0  0  0
   -9.1644    0.5946    0.1354 C   0  0  0  0  0  0  0  0  0  0  0  0
   -9.3022   -0.7952   -0.3917 C   0  0  0  0  0  0  0  0  0  0  0  0
    7.8006    0.8141   -0.8234 C   0  0  1  0  0  0  0  0  0  0  0  0
   -8.2931   -3.1008   -0.6655 C   0  0  0  0  0  0  0  0  0  0  0  0
    8.8342   -0.2079   -1.2970 C   0  0  2  0  0  0  0  0  0  0  0  0
  -10.6567   -1.1339   -0.9450 C   0  0  0  0  0  0  0  0  0  0  0  0
    7.9861   -1.7338    0.5177 C   0  0  1  0  0  0  0  0  0  0  0  0
    9.2285   -1.1601   -0.1677 C   0  0  1  0  0  0  0  0  0  0  0  0
    8.3527   -2.5949    1.7223 C   0  0  0  0  0  0  0  0  0  0  0  0
   -1.9735   -0.9015   -0.2784 H   0  0  0  0  0  0  0  0  0  0  0  0
   -0.6595    1.6373   -1.3249 H   0  0  0  0  0  0  0  0  0  0  0  0
    0.1476   -0.3037    0.8753 H   0  0  0  0  0  0  0  0  0  0  0  0
   -4.1648   -0.7746    0.5684 H   0  0  0  0  0  0  0  0  0  0  0  0
   -2.8851    1.5201    2.3066 H   0  0  0  0  0  0  0  0  0  0  0  0
   -2.3329   -0.1175    1.9846 H   0  0  0  0  0  0  0  0  0  0  0  0
   -2.6348   -0.9757   -2.5398 H   0  0  0  0  0  0  0  0  0  0  0  0
   -2.7788    0.7812   -2.6697 H   0  0  0  0  0  0  0  0  0  0  0  0
   -0.8967    2.5023    1.4327 H   0  0  0  0  0  0  0  0  0  0  0  0
   -0.4502    1.2668    2.5901 H   0  0  0  0  0  0  0  0  0  0  0  0
   -4.9265    0.5984   -2.0313 H   0  0  0  0  0  0  0  0  0  0  0  0
   -4.7621   -1.1268   -1.6616 H   0  0  0  0  0  0  0  0  0  0  0  0
   -0.0993   -0.0973   -2.8403 H   0  0  0  0  0  0  0  0  0  0  0  0
   -5.5253    1.9545    0.3182 H   0  0  0  0  0  0  0  0  0  0  0  0
   -2.1294    2.9288   -0.4118 H   0  0  0  0  0  0  0  0  0  0  0  0
   -3.6279    3.0233    0.4856 H   0  0  0  0  0  0  0  0  0  0  0  0
   -3.6387    2.5229   -1.2091 H   0  0  0  0  0  0  0  0  0  0  0  0
    1.8252    1.6508    2.5950 H   0  0  0  0  0  0  0  0  0  0  0  0
    2.3155   -0.3400   -2.5199 H   0  0  0  0  0  0  0  0  0  0  0  0
    1.0213    3.4130    1.1152 H   0  0  0  0  0  0  0  0  0  0  0  0
    0.7869    3.1644   -0.6216 H   0  0  0  0  0  0  0  0  0  0  0  0
    2.4008    3.3483    0.0440 H   0  0  0  0  0  0  0  0  0  0  0  0
    4.2405    0.4800   -1.5970 H   0  0  0  0  0  0  0  0  0  0  0  0
    3.9398    2.0992   -1.0508 H   0  0  0  0  0  0  0  0  0  0  0  0
    4.2723    1.1445    2.6325 H   0  0  0  0  0  0  0  0  0  0  0  0
    3.9040    2.5197    1.6181 H   0  0  0  0  0  0  0  0  0  0  0  0
   -6.7786    0.4817   -1.1678 H   0  0  0  0  0  0  0  0  0  0  0  0
    4.4157   -0.3531    0.7278 H   0  0  0  0  0  0  0  0  0  0  0  0
   -5.3496   -0.2177    2.4551 H   0  0  0  0  0  0  0  0  0  0  0  0
   -6.6172    1.0151    2.4635 H   0  0  0  0  0  0  0  0  0  0  0  0
   -4.9488    1.4971    2.5643 H   0  0  0  0  0  0  0  0  0  0  0  0
    0.5726   -2.1340   -2.1894 H   0  0  0  0  0  0  0  0  0  0  0  0
   -6.9344   -1.3621    1.3072 H   0  0  0  0  0  0  0  0  0  0  0  0
   -6.1305   -1.7686   -0.2054 H   0  0  0  0  0  0  0  0  0  0  0  0
    2.6272   -0.3989    3.0073 H   0  0  0  0  0  0  0  0  0  0  0  0
    6.0889   -0.4942   -0.7770 H   0  0  0  0  0  0  0  0  0  0  0  0
    8.2742    1.5744   -0.1911 H   0  0  0  0  0  0  0  0  0  0  0  0
   -7.5526   -3.3042   -1.4469 H   0  0  0  0  0  0  0  0  0  0  0  0
   -9.2641   -3.4324   -1.0368 H   0  0  0  0  0  0  0  0  0  0  0  0
    8.4649   -0.7645   -2.1663 H   0  0  0  0  0  0  0  0  0  0  0  0
  -11.3600   -1.3334   -0.1302 H   0  0  0  0  0  0  0  0  0  0  0  0
  -10.6453   -1.9977   -1.6135 H   0  0  0  0  0  0  0  0  0  0  0  0
  -11.0480   -0.3010   -1.5403 H   0  0  0  0  0  0  0  0  0  0  0  0
    7.4035   -2.3542   -0.1769 H   0  0  0  0  0  0  0  0  0  0  0  0
    9.8556   -0.6297    0.5593 H   0  0  0  0  0  0  0  0  0  0  0  0
    6.8269    0.8404   -2.5251 H   0  0  0  0  0  0  0  0  0  0  0  0
   -7.9799   -4.8148    0.1861 H   0  0  0  0  0  0  0  0  0  0  0  0
    8.8796   -2.0036    2.4786 H   0  0  0  0  0  0  0  0  0  0  0  0
    8.9737   -3.4478    1.4324 H   0  0  0  0  0  0  0  0  0  0  0  0
   10.3549    0.9922   -0.9847 H   0  0  0  0  0  0  0  0  0  0  0  0
    9.4552   -2.7130   -1.3382 H   0  0  0  0  0  0  0  0  0  0  0  0
    7.4154   -3.6215    3.0754 H   0  0  0  0  0  0  0  0  0  0  0  0
  1 22  1  0  0  0  0
  1 77  1  0  0  0  0
  2 26  1  0  0  0  0
  2 80  1  0  0  0  0
  3 31  1  0  0  0  0
  3 37  1  0  0  0  0
  4 32  1  0  0  0  0
  4 36  1  0  0  0  0
  5 36  1  0  0  0  0
  5 43  1  0  0  0  0
  6 37  2  0  0  0  0
  7 39  1  0  0  0  0
  7 91  1  0  0  0  0
  8 40  1  0  0  0  0
  8 92  1  0  0  0  0
  9 41  1  0  0  0  0
  9 95  1  0  0  0  0
 10 44  1  0  0  0  0
 10 96  1  0  0  0  0
 11 45  1  0  0  0  0
 11 97  1  0  0  0  0
 12 13  1  0  0  0  0
 12 16  1  0  0  0  0
 12 17  1  0  0  0  0
 12 24  1  0  0  0  0
 13 14  1  0  0  0  0
 13 19  1  0  0  0  0
 13 46  1  0  0  0  0
 14 15  1  0  0  0  0
 14 22  1  0  0  0  0
 14 47  1  0  0  0  0
 15 18  1  0  0  0  0
 15 20  1  0  0  0  0
 15 48  1  0  0  0  0
 16 21  1  0  0  0  0
 16 23  1  0  0  0  0
 16 49  1  0  0  0  0
 17 20  1  0  0  0  0
 17 50  1  0  0  0  0
 17 51  1  0  0  0  0
 18 25  1  0  0  0  0
 18 26  1  0  0  0  0
 18 28  1  0  0  0  0
 19 21  1  0  0  0  0
 19 52  1  0  0  0  0
 19 53  1  0  0  0  0
 20 54  1  0  0  0  0
 20 55  1  0  0  0  0
 21 56  1  0  0  0  0
 21 57  1  0  0  0  0
 22 27  1  0  0  0  0
 22 58  1  0  0  0  0
 23 31  1  0  0  0  0
 23 33  1  0  0  0  0
 23 59  1  0  0  0  0
 24 60  1  0  0  0  0
 24 61  1  0  0  0  0
 24 62  1  0  0  0  0
 25 27  2  0  0  0  0
 25 29  1  0  0  0  0
 26 30  1  0  0  0  0
 26 63  1  0  0  0  0
 27 64  1  0  0  0  0
 28 65  1  0  0  0  0
 28 66  1  0  0  0  0
 28 67  1  0  0  0  0
 29 32  1  0  0  0  0
 29 68  1  0  0  0  0
 29 69  1  0  0  0  0
 30 32  1  0  0  0  0
 30 70  1  0  0  0  0
 30 71  1  0  0  0  0
 31 34  1  0  0  0  0
 31 72  1  0  0  0  0
 32 73  1  0  0  0  0
 33 74  1  0  0  0  0
 33 75  1  0  0  0  0
 33 76  1  0  0  0  0
 34 35  1  0  0  0  0
 34 78  1  0  0  0  0
 34 79  1  0  0  0  0
 35 38  2  0  0  0  0
 35 40  1  0  0  0  0
 36 39  1  0  0  0  0
 36 81  1  0  0  0  0
 37 38  1  0  0  0  0
 38 42  1  0  0  0  0
 39 41  1  0  0  0  0
 39 82  1  0  0  0  0
 40 83  1  0  0  0  0
 40 84  1  0  0  0  0
 41 44  1  0  0  0  0
 41 85  1  0  0  0  0
 42 86  1  0  0  0  0
 42 87  1  0  0  0  0
 42 88  1  0  0  0  0
 43 44  1  0  0  0  0
 43 45  1  0  0  0  0
 43 89  1  0  0  0  0
 44 90  1  0  0  0  0
 45 93  1  0  0  0  0
 45 94  1  0  0  0  0
M  END
> <PUBCHEM_COMPOUND_CID>
102139042

> <PUBCHEM_CONFORMER_RMSD>
1.2

> <PUBCHEM_CONFORMER_DIVERSEORDER>
1
19
20
7
24
8
18
11
22
21
13
16
5
17
6
4
10
25
12
14
23
15
2
9
3

> <PUBCHEM_MMFF94_PARTIAL_CHARGES>
39
1 -0.68
10 -0.68
11 -0.68
18 0.14
2 -0.68
22 0.42
25 -0.28
26 0.28
27 -0.29
29 0.14
3 -0.43
31 0.28
32 0.28
34 0.14
35 -0.28
36 0.56
37 0.71
38 -0.12
39 0.28
4 -0.56
40 0.42
41 0.28
42 0.14
43 0.28
44 0.28
45 0.28
5 -0.56
6 -0.57
64 0.15
7 -0.68
77 0.4
8 -0.68
80 0.4
9 -0.68
91 0.4
92 0.4
95 0.4
96 0.4
97 0.4

> <PUBCHEM_EFFECTIVE_ROTOR_COUNT>
9.8

> <PUBCHEM_PHARMACOPHORE_FEATURES>
24
1 1 acceptor
1 1 donor
1 10 acceptor
1 10 donor
1 11 acceptor
1 11 donor
1 2 acceptor
1 2 donor
1 33 hydrophobe
1 4 acceptor
1 5 acceptor
1 6 acceptor
1 7 acceptor
1 7 donor
1 8 acceptor
1 8 donor
1 9 acceptor
1 9 donor
5 12 13 16 19 21 rings
6 12 13 14 15 17 20 rings
6 14 15 18 22 25 27 rings
6 18 25 26 29 30 32 rings
6 3 31 34 35 37 38 rings
6 5 36 39 41 43 44 rings

> <PUBCHEM_HEAVY_ATOM_COUNT>
45

> <PUBCHEM_ATOM_DEF_STEREO_COUNT>
16

> <PUBCHEM_ATOM_UDEF_STEREO_COUNT>
0

> <PUBCHEM_BOND_DEF_STEREO_COUNT>
0

> <PUBCHEM_BOND_UDEF_STEREO_COUNT>
0

> <PUBCHEM_ISOTOPIC_ATOM_COUNT>
0

> <PUBCHEM_COMPONENT_COUNT>
1

> <PUBCHEM_CACTVS_TAUTO_COUNT>
1

> <PUBCHEM_CONFORMER_ID>
061684A200000001

> <PUBCHEM_MMFF94_ENERGY>
150.5493

> <PUBCHEM_FEATURE_SELFOVERLAP>
121.97

> <PUBCHEM_SHAPE_FINGERPRINT>
10076449 9 13695588850027829109
10533779 47 15698009543413110966
11135926 11 16917062227071175893
11456790 92 16415482665941347666
11534866 41 17775006765733293830
11578821 258 9727340351663920770
12013929 2 18343580734247332353
12089408 11 18409167719024010201
12098696 120 16200432451045415381
12133447 93 14562803301270074822
12522641 33 17385442115871870083
12539745 222 17988928834243471161
12758862 56 17775560957477589521
12838862 33 16558741288011213957
13553643 46 12175622867183199506
13811026 1 17918278666448634479
13947947 74 12685092575113343301
14017578 135 13542470869123071323
14117953 113 15357696396928525971
14118638 360 15140948531225697653
14415361 349 17167861997381935507
14747282 305 18261379014854584918
150020 25 16298109791429228824
15131766 46 17909824680283673917
15198563 99 16081361912930735348
15247644 1 18413672408945956895
15289351 153 16702304521117804585
15392192 104 17846784006017682798
15461852 350 18259703406958067717
15840311 113 18338518646737252004
16728433 281 11892145667588824903
1754911 235 16660082221790239277
19301679 30 18199751341621133748
19315958 150 10735883875919587956
19611394 137 17845374526463140755
20105231 36 18413106169083704367
21781051 124 17988368173100689134
21792934 111 15123505896527694944
232437 2 18342459240211765181
23576562 1 16299242369772573543
24893992 56 17489304222304878903
3383291 50 16917063361511994190
4017518 198 17675926508779325203
45270241 37 10737274724333222880
4625314 4 18409729599646645485
54039377 194 18412829092201172533
57035037 87 9007056872697218522
6523845 18 16988840570956548083

> <PUBCHEM_SHAPE_MULTIPOLES>
861.52
37.95
2.6
1.88
1.15
1.82
-0.3
23.85
2.01
-0.88
-0.87
2.69
0.23
-2.68

> <PUBCHEM_SHAPE_SELFOVERLAP>
1835.508

> <PUBCHEM_SHAPE_VOLUME>
472.1

> <PUBCHEM_COORDINATE_TYPE>
2
5
10

$$$$
