102139050
  -OEChem-11222012103D

 92 97  0     1  0  0  0  0  0999 V2000
    5.7111    1.7153   -2.8276 O   0  0  0  0  0  0  0  0  0  0  0  0
   -1.7351    0.8089    1.4283 O   0  0  0  0  0  0  0  0  0  0  0  0
    7.7315   -2.3144    1.4288 O   0  0  0  0  0  0  0  0  0  0  0  0
   -3.9022    1.2854    1.8279 O   0  0  0  0  0  0  0  0  0  0  0  0
   -5.6992   -0.5666   -0.0768 O   0  0  0  0  0  0  0  0  0  0  0  0
   -7.6325    0.6932    0.2684 O   0  0  0  0  0  0  0  0  0  0  0  0
   -7.2806   -2.6648   -1.1279 O   0  0  0  0  0  0  0  0  0  0  0  0
  -10.0132   -2.6403   -0.0268 O   0  0  0  0  0  0  0  0  0  0  0  0
  -11.1843   -0.0099   -0.2833 O   0  0  0  0  0  0  0  0  0  0  0  0
   -8.5881    3.2688    0.3616 O   0  0  0  0  0  0  0  0  0  0  0  0
    3.1519    0.4075    0.5848 C   0  0  1  0  0  0  0  0  0  0  0  0
    3.8652    0.2995   -0.7802 C   0  0  2  0  0  0  0  0  0  0  0  0
    5.3694    0.6186   -0.7092 C   0  0  1  0  0  0  0  0  0  0  0  0
    1.7079    0.0680    0.1405 C   0  0  2  0  0  0  0  0  0  0  0  0
    6.0452   -0.3702    0.2926 C   0  0  2  0  0  0  0  0  0  0  0  0
    3.7877   -0.6218    1.5291 C   0  0  0  0  0  0  0  0  0  0  0  0
    2.9651    1.1036   -1.7149 C   0  0  0  0  0  0  0  0  0  0  0  0
    1.5422    0.8420   -1.1874 C   0  0  0  0  0  0  0  0  0  0  0  0
    5.3035   -0.4000    1.6596 C   0  0  0  0  0  0  0  0  0  0  0  0
    7.5873   -0.0887    0.4191 C   0  0  1  0  0  0  0  0  0  0  0  0
    0.5996    0.3639    1.1408 C   0  0  1  0  0  0  0  0  0  0  0  0
    6.0266    0.5282   -2.0991 C   0  0  2  0  0  0  0  0  0  0  0  0
    3.2210    1.8185    1.2215 C   0  0  0  0  0  0  0  0  0  0  0  0
    8.2299    0.0942   -0.9588 C   0  0  0  0  0  0  0  0  0  0  0  0
    7.5161    0.3748   -2.0626 C   0  0  0  0  0  0  0  0  0  0  0  0
   -0.7429    0.4943    0.4356 C   0  0  1  0  0  0  0  0  0  0  0  0
    7.8674    1.1518    1.2955 C   0  0  0  0  0  0  0  0  0  0  0  0
    8.3182   -1.3075    1.0308 C   0  0  0  0  0  0  0  0  0  0  0  0
    0.5342   -0.7227    2.2142 C   0  0  0  0  0  0  0  0  0  0  0  0
    9.6724   -0.0802   -1.0664 C   0  0  0  0  0  0  0  0  0  0  0  0
    9.8312   -1.2172    1.1532 C   0  0  0  0  0  0  0  0  0  0  0  0
   -1.1252   -0.7907   -0.2770 C   0  0  0  0  0  0  0  0  0  0  0  0
   10.4077   -0.6533   -0.1038 C   0  0  0  0  0  0  0  0  0  0  0  0
   -2.5251   -0.6605   -0.8111 C   0  0  0  0  0  0  0  0  0  0  0  0
   -3.0514    0.7949    1.0918 C   0  0  0  0  0  0  0  0  0  0  0  0
   -3.4229    0.1336   -0.1939 C   0  0  0  0  0  0  0  0  0  0  0  0
   -2.8004   -1.4873   -2.0363 C   0  0  0  0  0  0  0  0  0  0  0  0
   -4.8293    0.3867   -0.6560 C   0  0  0  0  0  0  0  0  0  0  0  0
   -7.0518   -0.3675   -0.4868 C   0  0  2  0  0  0  0  0  0  0  0  0
   -7.8121   -1.6724   -0.2505 C   0  0  1  0  0  0  0  0  0  0  0  0
   -9.3068   -1.5022   -0.5229 C   0  0  2  0  0  0  0  0  0  0  0  0
   -8.9834    0.9609   -0.1119 C   0  0  1  0  0  0  0  0  0  0  0  0
   -9.8591   -0.2606    0.1774 C   0  0  1  0  0  0  0  0  0  0  0  0
   -9.4471    2.1861    0.6696 C   0  0  0  0  0  0  0  0  0  0  0  0
    3.7918   -0.7471   -1.1219 H   0  0  0  0  0  0  0  0  0  0  0  0
    5.4888    1.6476   -0.3508 H   0  0  0  0  0  0  0  0  0  0  0  0
    1.6780   -1.0017   -0.1172 H   0  0  0  0  0  0  0  0  0  0  0  0
    5.9275   -1.3784   -0.1361 H   0  0  0  0  0  0  0  0  0  0  0  0
    3.6082   -1.6407    1.1636 H   0  0  0  0  0  0  0  0  0  0  0  0
    3.3562   -0.5642    2.5316 H   0  0  0  0  0  0  0  0  0  0  0  0
    3.0654    0.7816   -2.7565 H   0  0  0  0  0  0  0  0  0  0  0  0
    3.1970    2.1737   -1.6725 H   0  0  0  0  0  0  0  0  0  0  0  0
    1.0660    1.8194   -1.0585 H   0  0  0  0  0  0  0  0  0  0  0  0
    0.9729    0.2813   -1.9334 H   0  0  0  0  0  0  0  0  0  0  0  0
    5.4701    0.5346    2.2044 H   0  0  0  0  0  0  0  0  0  0  0  0
    5.7090   -1.1944    2.2946 H   0  0  0  0  0  0  0  0  0  0  0  0
    0.7612    1.3159    1.6574 H   0  0  0  0  0  0  0  0  0  0  0  0
    5.6118   -0.3197   -2.6578 H   0  0  0  0  0  0  0  0  0  0  0  0
    4.2451    2.1900    1.3120 H   0  0  0  0  0  0  0  0  0  0  0  0
    2.8095    1.8110    2.2370 H   0  0  0  0  0  0  0  0  0  0  0  0
    2.6660    2.5669    0.6472 H   0  0  0  0  0  0  0  0  0  0  0  0
    8.0241    0.4646   -3.0216 H   0  0  0  0  0  0  0  0  0  0  0  0
   -0.7524    1.3435   -0.2553 H   0  0  0  0  0  0  0  0  0  0  0  0
    7.6728    0.9435    2.3536 H   0  0  0  0  0  0  0  0  0  0  0  0
    7.2559    2.0092    0.9969 H   0  0  0  0  0  0  0  0  0  0  0  0
    8.9118    1.4795    1.2392 H   0  0  0  0  0  0  0  0  0  0  0  0
    0.6510   -1.7307    1.8030 H   0  0  0  0  0  0  0  0  0  0  0  0
   -0.4042   -0.6998    2.7778 H   0  0  0  0  0  0  0  0  0  0  0  0
    1.3216   -0.5772    2.9574 H   0  0  0  0  0  0  0  0  0  0  0  0
    6.0505    1.6082   -3.7328 H   0  0  0  0  0  0  0  0  0  0  0  0
   10.1658    0.2552   -1.9746 H   0  0  0  0  0  0  0  0  0  0  0  0
   10.2250   -2.2274    1.3081 H   0  0  0  0  0  0  0  0  0  0  0  0
   10.0948   -0.6040    2.0194 H   0  0  0  0  0  0  0  0  0  0  0  0
   -1.1282   -1.6551    0.3971 H   0  0  0  0  0  0  0  0  0  0  0  0
   -0.4442   -1.0248   -1.0975 H   0  0  0  0  0  0  0  0  0  0  0  0
   11.4812   -0.7430   -0.2442 H   0  0  0  0  0  0  0  0  0  0  0  0
   -2.2352   -1.0979   -2.8893 H   0  0  0  0  0  0  0  0  0  0  0  0
   -3.8574   -1.5108   -2.3129 H   0  0  0  0  0  0  0  0  0  0  0  0
   -2.4958   -2.5254   -1.8645 H   0  0  0  0  0  0  0  0  0  0  0  0
   -4.8876    0.3343   -1.7496 H   0  0  0  0  0  0  0  0  0  0  0  0
   -5.1438    1.4021   -0.3835 H   0  0  0  0  0  0  0  0  0  0  0  0
   -7.0711   -0.1160   -1.5566 H   0  0  0  0  0  0  0  0  0  0  0  0
   -7.6466   -2.0328    0.7717 H   0  0  0  0  0  0  0  0  0  0  0  0
   -9.5069   -1.4647   -1.6002 H   0  0  0  0  0  0  0  0  0  0  0  0
   -9.0007    1.2144   -1.1808 H   0  0  0  0  0  0  0  0  0  0  0  0
   -9.9173   -0.4420    1.2576 H   0  0  0  0  0  0  0  0  0  0  0  0
   -9.3844    2.0073    1.7482 H   0  0  0  0  0  0  0  0  0  0  0  0
  -10.4721    2.4653    0.4079 H   0  0  0  0  0  0  0  0  0  0  0  0
   -7.4148   -2.3624   -2.0423 H   0  0  0  0  0  0  0  0  0  0  0  0
   -9.8407   -2.7111    0.9276 H   0  0  0  0  0  0  0  0  0  0  0  0
  -11.1419    0.1659   -1.2388 H   0  0  0  0  0  0  0  0  0  0  0  0
   -8.8986    4.0358    0.8724 H   0  0  0  0  0  0  0  0  0  0  0  0
  1 22  1  0  0  0  0
  1 70  1  0  0  0  0
  2 26  1  0  0  0  0
  2 35  1  0  0  0  0
  3 28  2  0  0  0  0
  4 35  2  0  0  0  0
  5 38  1  0  0  0  0
  5 39  1  0  0  0  0
  6 39  1  0  0  0  0
  6 42  1  0  0  0  0
  7 40  1  0  0  0  0
  7 89  1  0  0  0  0
  8 41  1  0  0  0  0
  8 90  1  0  0  0  0
  9 43  1  0  0  0  0
  9 91  1  0  0  0  0
 10 44  1  0  0  0  0
 10 92  1  0  0  0  0
 11 12  1  0  0  0  0
 11 14  1  0  0  0  0
 11 16  1  0  0  0  0
 11 23  1  0  0  0  0
 12 13  1  0  0  0  0
 12 17  1  0  0  0  0
 12 45  1  0  0  0  0
 13 15  1  0  0  0  0
 13 22  1  0  0  0  0
 13 46  1  0  0  0  0
 14 18  1  0  0  0  0
 14 21  1  0  0  0  0
 14 47  1  0  0  0  0
 15 19  1  0  0  0  0
 15 20  1  0  0  0  0
 15 48  1  0  0  0  0
 16 19  1  0  0  0  0
 16 49  1  0  0  0  0
 16 50  1  0  0  0  0
 17 18  1  0  0  0  0
 17 51  1  0  0  0  0
 17 52  1  0  0  0  0
 18 53  1  0  0  0  0
 18 54  1  0  0  0  0
 19 55  1  0  0  0  0
 19 56  1  0  0  0  0
 20 24  1  0  0  0  0
 20 27  1  0  0  0  0
 20 28  1  0  0  0  0
 21 26  1  0  0  0  0
 21 29  1  0  0  0  0
 21 57  1  0  0  0  0
 22 25  1  0  0  0  0
 22 58  1  0  0  0  0
 23 59  1  0  0  0  0
 23 60  1  0  0  0  0
 23 61  1  0  0  0  0
 24 25  2  0  0  0  0
 24 30  1  0  0  0  0
 25 62  1  0  0  0  0
 26 32  1  0  0  0  0
 26 63  1  0  0  0  0
 27 64  1  0  0  0  0
 27 65  1  0  0  0  0
 27 66  1  0  0  0  0
 28 31  1  0  0  0  0
 29 67  1  0  0  0  0
 29 68  1  0  0  0  0
 29 69  1  0  0  0  0
 30 33  2  0  0  0  0
 30 71  1  0  0  0  0
 31 33  1  0  0  0  0
 31 72  1  0  0  0  0
 31 73  1  0  0  0  0
 32 34  1  0  0  0  0
 32 74  1  0  0  0  0
 32 75  1  0  0  0  0
 33 76  1  0  0  0  0
 34 36  2  0  0  0  0
 34 37  1  0  0  0  0
 35 36  1  0  0  0  0
 36 38  1  0  0  0  0
 37 77  1  0  0  0  0
 37 78  1  0  0  0  0
 37 79  1  0  0  0  0
 38 80  1  0  0  0  0
 38 81  1  0  0  0  0
 39 40  1  0  0  0  0
 39 82  1  0  0  0  0
 40 41  1  0  0  0  0
 40 83  1  0  0  0  0
 41 43  1  0  0  0  0
 41 84  1  0  0  0  0
 42 43  1  0  0  0  0
 42 44  1  0  0  0  0
 42 85  1  0  0  0  0
 43 86  1  0  0  0  0
 44 87  1  0  0  0  0
 44 88  1  0  0  0  0
M  END
> <PUBCHEM_COMPOUND_CID>
102139050

> <PUBCHEM_CONFORMER_RMSD>
1.2

> <PUBCHEM_CONFORMER_DIVERSEORDER>
1
60
15
16
38
50
43
89
75
71
8
30
68
86
36
47
67
73
48
59
88
57
18
42
85
46
62
78
77
74
34
44
63
65
7
32
79
55
11
52
58
69
82
87
3
41
70
4
72
84
28
9
53
40
14
66
61
35
54
27
76
49
39
23
20
31
83
56
22
45
6
10
26
13
19
33
64
5
51
2
37
17
24
21
12
80
25
81
29

> <PUBCHEM_MMFF94_PARTIAL_CHARGES>
39
1 -0.68
10 -0.68
2 -0.43
20 0.2
22 0.42
24 -0.14
25 -0.29
26 0.28
28 0.45
3 -0.57
30 -0.15
31 0.2
32 0.14
33 -0.29
34 -0.28
35 0.71
36 -0.12
37 0.14
38 0.42
39 0.56
4 -0.57
40 0.28
41 0.28
42 0.28
43 0.28
44 0.28
5 -0.56
6 -0.56
62 0.15
7 -0.68
70 0.4
71 0.15
76 0.15
8 -0.68
89 0.4
9 -0.68
90 0.4
91 0.4
92 0.4

> <PUBCHEM_EFFECTIVE_ROTOR_COUNT>
9.2

> <PUBCHEM_PHARMACOPHORE_FEATURES>
21
1 1 acceptor
1 1 donor
1 10 acceptor
1 10 donor
1 29 hydrophobe
1 3 acceptor
1 4 acceptor
1 5 acceptor
1 6 acceptor
1 7 acceptor
1 7 donor
1 8 acceptor
1 8 donor
1 9 acceptor
1 9 donor
5 11 12 14 17 18 rings
6 11 12 13 15 16 19 rings
6 13 15 20 22 24 25 rings
6 2 26 32 34 35 36 rings
6 20 24 28 30 31 33 rings
6 6 39 40 41 42 43 rings

> <PUBCHEM_HEAVY_ATOM_COUNT>
44

> <PUBCHEM_ATOM_DEF_STEREO_COUNT>
14

> <PUBCHEM_ATOM_UDEF_STEREO_COUNT>
0

> <PUBCHEM_BOND_DEF_STEREO_COUNT>
0

> <PUBCHEM_BOND_UDEF_STEREO_COUNT>
0

> <PUBCHEM_ISOTOPIC_ATOM_COUNT>
0

> <PUBCHEM_COMPONENT_COUNT>
1

> <PUBCHEM_CACTVS_TAUTO_COUNT>
4

> <PUBCHEM_CONFORMER_ID>
061684AA00000001

> <PUBCHEM_MMFF94_ENERGY>
141.2909

> <PUBCHEM_FEATURE_SELFOVERLAP>
106.737

> <PUBCHEM_SHAPE_FINGERPRINT>
10076449 9 15068620474907684719
10299344 5 18186517714264107635
10533779 47 15984839159168548655
10674148 151 18273210919842090155
11409948 35 13335000687848203648
11534866 41 17489593342946479918
12089408 11 18259985976697530589
12098696 120 16988564597791038575
12522641 33 17313101943072028043
12539747 91 16702020876829071537
12664476 115 15285355133391282550
12741549 16 16558749014145671328
12758862 56 17561074843507673523
12838862 33 16128368255447412157
13811026 1 16056885719023548553
13947934 56 18130227051594366776
13947947 74 16917355813965982175
14251764 46 18272651246631827534
14294032 229 18269281154090763409
15064986 266 16516260655191372066
15065858 18 17632576046207187486
15183329 4 17312823776121584100
15247644 1 18343866627627864719
15461852 350 18411138026506990641
15510794 2 17060338539751949775
15840311 113 18336264635331575812
16728433 110 18411414043160659632
1754911 235 16298382479087513455
19315958 150 14405189482486953772
20105231 36 17775004622544469623
21792934 111 15554444107272692722
22164985 6 18408878564181148335
232437 2 18409165515157044363
23576562 1 16081661104737464774
24771293 8 14056992790413488063
3092352 35 18113338622661101531
3178227 256 14261351371472964226
335352 9 16950285105608749070
3383291 50 17346600806816826479
4625314 4 17346592019434538121
58083652 198 17095533902805355292
58902169 19 17967816110587120847
6081469 158 17060340712847412280
6126387 218 15051737474116255059
6201320 215 18189896423144753989
9663363 56 16988842775182125657
9937071 3 16845578620936308566
9962374 69 16128361723424939137

> <PUBCHEM_SHAPE_MULTIPOLES>
846.81
42.46
1.9
1.9
47.52
0.12
0.5
-7.68
-0.3
5.49
-0.14
-4.85
-0.03
-0.45

> <PUBCHEM_SHAPE_SELFOVERLAP>
1815.142

> <PUBCHEM_SHAPE_VOLUME>
463

> <PUBCHEM_COORDINATE_TYPE>
2
5
10

$$$$
