102139044
  -OEChem-11222012113D

 97102  0     1  0  0  0  0  0999 V2000
   -0.1348    0.3509   -3.1335 O   0  0  0  0  0  0  0  0  0  0  0  0
    2.2325   -0.4562    2.1281 O   0  0  0  0  0  0  0  0  0  0  0  0
   -7.8287    0.6586    0.7531 O   0  0  0  0  0  0  0  0  0  0  0  0
    5.8793    1.0835    0.5480 O   0  0  0  0  0  0  0  0  0  0  0  0
    7.2018   -0.7977    0.9429 O   0  0  0  0  0  0  0  0  0  0  0  0
  -10.0762    0.8363    0.7746 O   0  0  0  0  0  0  0  0  0  0  0  0
    7.3264    1.5737   -1.8339 O   0  0  0  0  0  0  0  0  0  0  0  0
   10.0678    0.5030   -1.6953 O   0  0  0  0  0  0  0  0  0  0  0  0
  -10.8876   -0.5401   -1.7548 O   0  0  0  0  0  0  0  0  0  0  0  0
   10.0327   -2.2639   -0.8597 O   0  0  0  0  0  0  0  0  0  0  0  0
    7.1817   -3.2945    2.0924 O   0  0  0  0  0  0  0  0  0  0  0  0
   -2.8719    0.8305    0.3637 C   0  0  1  0  0  0  0  0  0  0  0  0
   -1.9834    0.1180   -0.6781 C   0  0  2  0  0  0  0  0  0  0  0  0
   -0.5728    0.7230   -0.7923 C   0  0  1  0  0  0  0  0  0  0  0  0
    0.1171    0.6745    0.6041 C   0  0  1  0  0  0  0  0  0  0  0  0
   -4.1787    0.0211    0.1768 C   0  0  2  0  0  0  0  0  0  0  0  0
   -2.2096    0.6586    1.7368 C   0  0  0  0  0  0  0  0  0  0  0  0
    1.5628    1.3229    0.5680 C   0  0  2  0  0  0  0  0  0  0  0  0
   -2.8729    0.0500   -1.9171 C   0  0  0  0  0  0  0  0  0  0  0  0
   -0.7808    1.2240    1.7454 C   0  0  0  0  0  0  0  0  0  0  0  0
   -4.2939   -0.1393   -1.3558 C   0  0  0  0  0  0  0  0  0  0  0  0
    0.2796   -0.0423   -1.8245 C   0  0  2  0  0  0  0  0  0  0  0  0
   -5.4360    0.6024    0.8075 C   0  0  1  0  0  0  0  0  0  0  0  0
   -3.0991    2.3346    0.0718 C   0  0  0  0  0  0  0  0  0  0  0  0
    2.3406    0.8304   -0.6618 C   0  0  0  0  0  0  0  0  0  0  0  0
    2.3502    0.9462    1.8699 C   0  0  2  0  0  0  0  0  0  0  0  0
    1.7508    0.2106   -1.6988 C   0  0  0  0  0  0  0  0  0  0  0  0
    1.4751    2.8678    0.4688 C   0  0  0  0  0  0  0  0  0  0  0  0
    3.8308    1.0848   -0.6904 C   0  0  0  0  0  0  0  0  0  0  0  0
    3.8412    1.2943    1.8178 C   0  0  0  0  0  0  0  0  0  0  0  0
   -6.6833    0.0435    0.1380 C   0  0  1  0  0  0  0  0  0  0  0  0
    4.5193    0.6630    0.6030 C   0  0  2  0  0  0  0  0  0  0  0  0
   -5.4672    0.3232    2.3102 C   0  0  0  0  0  0  0  0  0  0  0  0
   -6.7706   -1.4644    0.2928 C   0  0  0  0  0  0  0  0  0  0  0  0
   -8.0956   -1.9385   -0.2376 C   0  0  0  0  0  0  0  0  0  0  0  0
    6.7075    0.0907   -0.0565 C   0  0  2  0  0  0  0  0  0  0  0  0
   -9.0744    0.1967    0.4684 C   0  0  0  0  0  0  0  0  0  0  0  0
   -9.1753   -1.1319   -0.2044 C   0  0  0  0  0  0  0  0  0  0  0  0
    7.8630    0.8049   -0.7575 C   0  0  1  0  0  0  0  0  0  0  0  0
   -8.0842   -3.3467   -0.7644 C   0  0  0  0  0  0  0  0  0  0  0  0
  -10.5347   -1.4682   -0.7472 C   0  0  0  0  0  0  0  0  0  0  0  0
    8.8829   -0.1932   -1.3059 C   0  0  2  0  0  0  0  0  0  0  0  0
    8.0207   -1.8340    0.3984 C   0  0  1  0  0  0  0  0  0  0  0  0
    9.2683   -1.2278   -0.2486 C   0  0  1  0  0  0  0  0  0  0  0  0
    8.3797   -2.7830    1.5374 C   0  0  0  0  0  0  0  0  0  0  0  0
   -1.8443   -0.9264   -0.3504 H   0  0  0  0  0  0  0  0  0  0  0  0
   -0.6682    1.7607   -1.1312 H   0  0  0  0  0  0  0  0  0  0  0  0
    0.2401   -0.3973    0.8239 H   0  0  0  0  0  0  0  0  0  0  0  0
   -4.0106   -0.9880    0.5832 H   0  0  0  0  0  0  0  0  0  0  0  0
   -2.7733    1.1707    2.5205 H   0  0  0  0  0  0  0  0  0  0  0  0
   -2.1728   -0.4024    2.0145 H   0  0  0  0  0  0  0  0  0  0  0  0
   -2.5952   -0.7806   -2.5742 H   0  0  0  0  0  0  0  0  0  0  0  0
   -2.8145    0.9738   -2.5037 H   0  0  0  0  0  0  0  0  0  0  0  0
   -0.8430    2.3148    1.6934 H   0  0  0  0  0  0  0  0  0  0  0  0
   -0.3308    0.9886    2.7165 H   0  0  0  0  0  0  0  0  0  0  0  0
   -4.9245    0.6255   -1.8209 H   0  0  0  0  0  0  0  0  0  0  0  0
   -4.6758   -1.1204   -1.6500 H   0  0  0  0  0  0  0  0  0  0  0  0
    0.1075   -1.1217   -1.7349 H   0  0  0  0  0  0  0  0  0  0  0  0
   -5.4891    1.6891    0.6817 H   0  0  0  0  0  0  0  0  0  0  0  0
   -2.1625    2.8853   -0.0500 H   0  0  0  0  0  0  0  0  0  0  0  0
   -3.6311    2.8186    0.8985 H   0  0  0  0  0  0  0  0  0  0  0  0
   -3.6825    2.5027   -0.8389 H   0  0  0  0  0  0  0  0  0  0  0  0
    1.9075    1.4615    2.7303 H   0  0  0  0  0  0  0  0  0  0  0  0
    2.3654   -0.1332   -2.5283 H   0  0  0  0  0  0  0  0  0  0  0  0
    1.0532    3.3076    1.3782 H   0  0  0  0  0  0  0  0  0  0  0  0
    0.8580    3.1889   -0.3765 H   0  0  0  0  0  0  0  0  0  0  0  0
    2.4568    3.3341    0.3339 H   0  0  0  0  0  0  0  0  0  0  0  0
    4.2994    0.5756   -1.5416 H   0  0  0  0  0  0  0  0  0  0  0  0
    4.0125    2.1519   -0.8734 H   0  0  0  0  0  0  0  0  0  0  0  0
    4.3470    0.9351    2.7233 H   0  0  0  0  0  0  0  0  0  0  0  0
    3.9873    2.3811    1.8072 H   0  0  0  0  0  0  0  0  0  0  0  0
   -6.7366    0.3330   -0.9166 H   0  0  0  0  0  0  0  0  0  0  0  0
    4.4675   -0.4290    0.7184 H   0  0  0  0  0  0  0  0  0  0  0  0
   -5.1403   -0.6919    2.5584 H   0  0  0  0  0  0  0  0  0  0  0  0
   -6.4624    0.4673    2.7433 H   0  0  0  0  0  0  0  0  0  0  0  0
   -4.8163    1.0192    2.8445 H   0  0  0  0  0  0  0  0  0  0  0  0
    0.3385   -0.2061   -3.7752 H   0  0  0  0  0  0  0  0  0  0  0  0
   -6.7246   -1.7780    1.3422 H   0  0  0  0  0  0  0  0  0  0  0  0
   -5.9642   -1.9796   -0.2326 H   0  0  0  0  0  0  0  0  0  0  0  0
    2.6799   -0.6387    2.9719 H   0  0  0  0  0  0  0  0  0  0  0  0
    6.1356   -0.4828   -0.7987 H   0  0  0  0  0  0  0  0  0  0  0  0
    8.3474    1.5126   -0.0743 H   0  0  0  0  0  0  0  0  0  0  0  0
   -7.5056   -3.3941   -1.6928 H   0  0  0  0  0  0  0  0  0  0  0  0
   -9.0736   -3.7604   -0.9632 H   0  0  0  0  0  0  0  0  0  0  0  0
   -7.6124   -4.0131   -0.0335 H   0  0  0  0  0  0  0  0  0  0  0  0
    8.5048   -0.6820   -2.2115 H   0  0  0  0  0  0  0  0  0  0  0  0
  -11.2848   -1.4136    0.0491 H   0  0  0  0  0  0  0  0  0  0  0  0
  -10.6125   -2.4653   -1.1819 H   0  0  0  0  0  0  0  0  0  0  0  0
    7.4288   -2.3964   -0.3367 H   0  0  0  0  0  0  0  0  0  0  0  0
    9.9036   -0.7581    0.5123 H   0  0  0  0  0  0  0  0  0  0  0  0
    6.8856    0.9638   -2.4499 H   0  0  0  0  0  0  0  0  0  0  0  0
    8.9156   -2.2534    2.3322 H   0  0  0  0  0  0  0  0  0  0  0  0
    8.9895   -3.6205    1.1855 H   0  0  0  0  0  0  0  0  0  0  0  0
   10.4188    0.9634   -0.9140 H   0  0  0  0  0  0  0  0  0  0  0  0
  -10.2419   -0.6262   -2.4771 H   0  0  0  0  0  0  0  0  0  0  0  0
    9.4732   -2.6962   -1.5273 H   0  0  0  0  0  0  0  0  0  0  0  0
    7.4332   -3.8920    2.8171 H   0  0  0  0  0  0  0  0  0  0  0  0
  1 22  1  0  0  0  0
  1 77  1  0  0  0  0
  2 26  1  0  0  0  0
  2 80  1  0  0  0  0
  3 31  1  0  0  0  0
  3 37  1  0  0  0  0
  4 32  1  0  0  0  0
  4 36  1  0  0  0  0
  5 36  1  0  0  0  0
  5 43  1  0  0  0  0
  6 37  2  0  0  0  0
  7 39  1  0  0  0  0
  7 91  1  0  0  0  0
  8 42  1  0  0  0  0
  8 94  1  0  0  0  0
  9 41  1  0  0  0  0
  9 95  1  0  0  0  0
 10 44  1  0  0  0  0
 10 96  1  0  0  0  0
 11 45  1  0  0  0  0
 11 97  1  0  0  0  0
 12 13  1  0  0  0  0
 12 16  1  0  0  0  0
 12 17  1  0  0  0  0
 12 24  1  0  0  0  0
 13 14  1  0  0  0  0
 13 19  1  0  0  0  0
 13 46  1  0  0  0  0
 14 15  1  0  0  0  0
 14 22  1  0  0  0  0
 14 47  1  0  0  0  0
 15 18  1  0  0  0  0
 15 20  1  0  0  0  0
 15 48  1  0  0  0  0
 16 21  1  0  0  0  0
 16 23  1  0  0  0  0
 16 49  1  0  0  0  0
 17 20  1  0  0  0  0
 17 50  1  0  0  0  0
 17 51  1  0  0  0  0
 18 25  1  0  0  0  0
 18 26  1  0  0  0  0
 18 28  1  0  0  0  0
 19 21  1  0  0  0  0
 19 52  1  0  0  0  0
 19 53  1  0  0  0  0
 20 54  1  0  0  0  0
 20 55  1  0  0  0  0
 21 56  1  0  0  0  0
 21 57  1  0  0  0  0
 22 27  1  0  0  0  0
 22 58  1  0  0  0  0
 23 31  1  0  0  0  0
 23 33  1  0  0  0  0
 23 59  1  0  0  0  0
 24 60  1  0  0  0  0
 24 61  1  0  0  0  0
 24 62  1  0  0  0  0
 25 27  2  0  0  0  0
 25 29  1  0  0  0  0
 26 30  1  0  0  0  0
 26 63  1  0  0  0  0
 27 64  1  0  0  0  0
 28 65  1  0  0  0  0
 28 66  1  0  0  0  0
 28 67  1  0  0  0  0
 29 32  1  0  0  0  0
 29 68  1  0  0  0  0
 29 69  1  0  0  0  0
 30 32  1  0  0  0  0
 30 70  1  0  0  0  0
 30 71  1  0  0  0  0
 31 34  1  0  0  0  0
 31 72  1  0  0  0  0
 32 73  1  0  0  0  0
 33 74  1  0  0  0  0
 33 75  1  0  0  0  0
 33 76  1  0  0  0  0
 34 35  1  0  0  0  0
 34 78  1  0  0  0  0
 34 79  1  0  0  0  0
 35 38  2  0  0  0  0
 35 40  1  0  0  0  0
 36 39  1  0  0  0  0
 36 81  1  0  0  0  0
 37 38  1  0  0  0  0
 38 41  1  0  0  0  0
 39 42  1  0  0  0  0
 39 82  1  0  0  0  0
 40 83  1  0  0  0  0
 40 84  1  0  0  0  0
 40 85  1  0  0  0  0
 41 87  1  0  0  0  0
 41 88  1  0  0  0  0
 42 44  1  0  0  0  0
 42 86  1  0  0  0  0
 43 44  1  0  0  0  0
 43 45  1  0  0  0  0
 43 89  1  0  0  0  0
 44 90  1  0  0  0  0
 45 92  1  0  0  0  0
 45 93  1  0  0  0  0
M  END
> <PUBCHEM_COMPOUND_CID>
102139044

> <PUBCHEM_CONFORMER_RMSD>
1.2

> <PUBCHEM_CONFORMER_DIVERSEORDER>
1
29
20
17
10
43
38
37
32
31
14
26
33
27
16
35
21
36
7
18
3
42
23
39
40
19
13
41
34
12
30
24
15
6
25
8
2
4
11
28
9
22
5

> <PUBCHEM_MMFF94_PARTIAL_CHARGES>
39
1 -0.68
10 -0.68
11 -0.68
18 0.14
2 -0.68
22 0.42
25 -0.28
26 0.28
27 -0.29
29 0.14
3 -0.43
31 0.28
32 0.28
34 0.14
35 -0.28
36 0.56
37 0.71
38 -0.12
39 0.28
4 -0.56
40 0.14
41 0.42
42 0.28
43 0.28
44 0.28
45 0.28
5 -0.56
6 -0.57
64 0.15
7 -0.68
77 0.4
8 -0.68
80 0.4
9 -0.68
91 0.4
94 0.4
95 0.4
96 0.4
97 0.4

> <PUBCHEM_EFFECTIVE_ROTOR_COUNT>
9.8

> <PUBCHEM_PHARMACOPHORE_FEATURES>
24
1 1 acceptor
1 1 donor
1 10 acceptor
1 10 donor
1 11 acceptor
1 11 donor
1 2 acceptor
1 2 donor
1 33 hydrophobe
1 4 acceptor
1 5 acceptor
1 6 acceptor
1 7 acceptor
1 7 donor
1 8 acceptor
1 8 donor
1 9 acceptor
1 9 donor
5 12 13 16 19 21 rings
6 12 13 14 15 17 20 rings
6 14 15 18 22 25 27 rings
6 18 25 26 29 30 32 rings
6 3 31 34 35 37 38 rings
6 5 36 39 42 43 44 rings

> <PUBCHEM_HEAVY_ATOM_COUNT>
45

> <PUBCHEM_ATOM_DEF_STEREO_COUNT>
16

> <PUBCHEM_ATOM_UDEF_STEREO_COUNT>
0

> <PUBCHEM_BOND_DEF_STEREO_COUNT>
0

> <PUBCHEM_BOND_UDEF_STEREO_COUNT>
0

> <PUBCHEM_ISOTOPIC_ATOM_COUNT>
0

> <PUBCHEM_COMPONENT_COUNT>
1

> <PUBCHEM_CACTVS_TAUTO_COUNT>
1

> <PUBCHEM_CONFORMER_ID>
061684A400000001

> <PUBCHEM_MMFF94_ENERGY>
150.7883

> <PUBCHEM_FEATURE_SELFOVERLAP>
121.97

> <PUBCHEM_SHAPE_FINGERPRINT>
10076449 9 14201399391766812453
10533779 47 15338850775780777494
11135926 11 16487252141073604701
11456790 92 15698002950411549395
11534866 41 17632300052047324806
11578821 258 8646479731024164774
11672396 167 15286180806800461344
12013929 2 18272650143875246097
12089408 11 18412829097076362609
12098696 120 15626225693294540701
12522641 33 17385723595206942507
12539745 222 17917435294023510513
12664476 115 11386359371234975847
12758862 56 17489866059466106099
12838862 33 16056593228083685353
13383668 1 18411129226256346199
13553643 46 11815898942105684282
13811026 1 17561088024835735383
13947947 74 13334736834214810165
14017578 135 12895079526532197603
14117953 113 16153706535844417091
14118638 360 15502644980094916485
14415361 349 17458062706944810066
14747282 305 18263068959905155078
150020 25 16443350883843901760
15064986 266 16371002959092248557
15065858 18 18342731962657043361
15131766 46 17837205248963128501
15198563 99 16298380219760578948
15247644 1 18342177773456705135
15289351 153 16056885702434354721
15461852 350 18333449846550794653
15840311 113 18200876287851097064
16728433 281 12613847503606281991
1754911 235 16660363701072408163
19301679 30 18129385904589399636
20105231 36 18342173371093289430
2026 5 17896872171942741730
21792934 111 14836402519804892704
232437 2 18272936024754919381
23576562 1 15864646096684883119
24893992 56 16917065598957638599
249057 3 15719393971379941665
3178227 256 16487257694265370392
335352 9 14996281449174995633
3383291 50 16558746815618105462
397638 26 15697994163082489422
4017518 198 17894914044892022139
45270241 37 11747204741621142264
4625314 4 18341050817620260409
5381727 24 16200430274056094157
54039377 194 18342460347975964157
6081469 158 18260544524119699325
6523845 18 16271924904828495523

> <PUBCHEM_SHAPE_MULTIPOLES>
861.52
38.58
2.38
2.08
5.33
1.17
-0.08
26.33
-0.71
-0.56
0.86
-2.53
0.31
-3.06

> <PUBCHEM_SHAPE_SELFOVERLAP>
1835.626

> <PUBCHEM_SHAPE_VOLUME>
473.3

> <PUBCHEM_COORDINATE_TYPE>
2
5
10

$$$$
