14825627
  -OEChem-11222012063D

 92 97  0     1  0  0  0  0  0999 V2000
   -5.7010   -0.8421   -2.6918 O   0  0  0  0  0  0  0  0  0  0  0  0
    1.8014   -0.6390    1.6002 O   0  0  0  0  0  0  0  0  0  0  0  0
   -7.3546    2.8828    0.2271 O   0  0  0  0  0  0  0  0  0  0  0  0
    4.0007   -0.7854    2.0735 O   0  0  0  0  0  0  0  0  0  0  0  0
    5.6264    0.6706   -0.2769 O   0  0  0  0  0  0  0  0  0  0  0  0
    7.5496   -0.6070    0.0598 O   0  0  0  0  0  0  0  0  0  0  0  0
    7.2401    2.8391   -1.1144 O   0  0  0  0  0  0  0  0  0  0  0  0
    9.9254    2.7427    0.0942 O   0  0  0  0  0  0  0  0  0  0  0  0
   11.1177    0.1384   -0.2951 O   0  0  0  0  0  0  0  0  0  0  0  0
    8.5120   -3.1814    0.0141 O   0  0  0  0  0  0  0  0  0  0  0  0
   -3.1302   -0.4603    0.7672 C   0  0  1  0  0  0  0  0  0  0  0  0
   -3.9069   -0.9372   -0.4760 C   0  0  2  0  0  0  0  0  0  0  0  0
   -5.4275   -0.9859   -0.2666 C   0  0  1  0  0  0  0  0  0  0  0  0
   -1.6862   -0.5910    0.2233 C   0  0  2  0  0  0  0  0  0  0  0  0
   -5.9390    0.4371    0.1214 C   0  0  2  0  0  0  0  0  0  0  0  0
   -3.5781    0.9774    1.0617 C   0  0  0  0  0  0  0  0  0  0  0  0
   -3.1802   -2.2149   -0.8861 C   0  0  0  0  0  0  0  0  0  0  0  0
   -1.7052   -1.9341   -0.5438 C   0  0  0  0  0  0  0  0  0  0  0  0
   -5.0984    1.0536    1.2808 C   0  0  0  0  0  0  0  0  0  0  0  0
   -7.5007    0.4438    0.3863 C   0  0  1  0  0  0  0  0  0  0  0  0
   -0.5628   -0.5089    1.2468 C   0  0  1  0  0  0  0  0  0  0  0  0
   -6.1622   -1.5044   -1.5162 C   0  0  1  0  0  0  0  0  0  0  0  0
   -3.3349   -1.3477    2.0201 C   0  0  0  0  0  0  0  0  0  0  0  0
   -8.2542   -0.4804   -0.5739 C   0  0  0  0  0  0  0  0  0  0  0  0
   -7.6410   -1.3171   -1.4285 C   0  0  0  0  0  0  0  0  0  0  0  0
    0.7919   -0.6903    0.5769 C   0  0  1  0  0  0  0  0  0  0  0  0
   -7.8373    0.0560    1.8408 C   0  0  0  0  0  0  0  0  0  0  0  0
   -8.0495    1.8709    0.1295 C   0  0  0  0  0  0  0  0  0  0  0  0
   -0.6110    0.8212    1.9991 C   0  0  0  0  0  0  0  0  0  0  0  0
   -9.7638   -0.3989   -0.5722 C   0  0  0  0  0  0  0  0  0  0  0  0
    1.0542    0.3946   -0.4524 C   0  0  0  0  0  0  0  0  0  0  0  0
   -9.4919    2.0577   -0.1789 C   0  0  0  0  0  0  0  0  0  0  0  0
  -10.2612    1.0074   -0.4767 C   0  0  0  0  0  0  0  0  0  0  0  0
    2.4649    0.2647   -0.9573 C   0  0  0  0  0  0  0  0  0  0  0  0
    3.1130   -0.5872    1.2496 C   0  0  0  0  0  0  0  0  0  0  0  0
    3.4300   -0.2513   -0.1699 C   0  0  0  0  0  0  0  0  0  0  0  0
    2.6697    0.7665   -2.3597 C   0  0  0  0  0  0  0  0  0  0  0  0
    4.8583   -0.4797   -0.5739 C   0  0  0  0  0  0  0  0  0  0  0  0
    6.9955    0.5025   -0.6435 C   0  0  2  0  0  0  0  0  0  0  0  0
    7.7397    1.7891   -0.2864 C   0  0  1  0  0  0  0  0  0  0  0  0
    9.2450    1.6406   -0.5081 C   0  0  2  0  0  0  0  0  0  0  0  0
    8.9160   -0.8455   -0.2822 C   0  0  1  0  0  0  0  0  0  0  0  0
    9.7736    0.3543    0.1268 C   0  0  1  0  0  0  0  0  0  0  0  0
    9.3527   -2.1211    0.4313 C   0  0  0  0  0  0  0  0  0  0  0  0
   -3.7220   -0.2103   -1.2845 H   0  0  0  0  0  0  0  0  0  0  0  0
   -5.6626   -1.6744    0.5547 H   0  0  0  0  0  0  0  0  0  0  0  0
   -1.5629    0.2097   -0.5184 H   0  0  0  0  0  0  0  0  0  0  0  0
   -5.7536    1.0818   -0.7525 H   0  0  0  0  0  0  0  0  0  0  0  0
   -3.3079    1.6421    0.2313 H   0  0  0  0  0  0  0  0  0  0  0  0
   -3.1122    1.3887    1.9581 H   0  0  0  0  0  0  0  0  0  0  0  0
   -3.5448   -3.0816   -0.3235 H   0  0  0  0  0  0  0  0  0  0  0  0
   -3.3051   -2.4350   -1.9511 H   0  0  0  0  0  0  0  0  0  0  0  0
   -1.1026   -1.8676   -1.4563 H   0  0  0  0  0  0  0  0  0  0  0  0
   -1.3078   -2.7615    0.0552 H   0  0  0  0  0  0  0  0  0  0  0  0
   -5.3275    0.5523    2.2261 H   0  0  0  0  0  0  0  0  0  0  0  0
   -5.3678    2.1050    1.4243 H   0  0  0  0  0  0  0  0  0  0  0  0
   -0.6577   -1.3066    1.9948 H   0  0  0  0  0  0  0  0  0  0  0  0
   -5.9449   -2.5727   -1.6334 H   0  0  0  0  0  0  0  0  0  0  0  0
   -2.8350   -0.9243    2.8968 H   0  0  0  0  0  0  0  0  0  0  0  0
   -4.3882   -1.4572    2.2916 H   0  0  0  0  0  0  0  0  0  0  0  0
   -2.9429   -2.3605    1.8826 H   0  0  0  0  0  0  0  0  0  0  0  0
   -8.2375   -1.9207   -2.1089 H   0  0  0  0  0  0  0  0  0  0  0  0
    0.8582   -1.6859    0.1201 H   0  0  0  0  0  0  0  0  0  0  0  0
   -7.4967    0.8193    2.5493 H   0  0  0  0  0  0  0  0  0  0  0  0
   -8.9153   -0.0371    2.0133 H   0  0  0  0  0  0  0  0  0  0  0  0
   -7.3811   -0.9013    2.1150 H   0  0  0  0  0  0  0  0  0  0  0  0
    0.3378    1.0508    2.4959 H   0  0  0  0  0  0  0  0  0  0  0  0
   -1.3436    0.7865    2.8092 H   0  0  0  0  0  0  0  0  0  0  0  0
   -0.8442    1.6682    1.3461 H   0  0  0  0  0  0  0  0  0  0  0  0
  -10.1659   -0.9793    0.2662 H   0  0  0  0  0  0  0  0  0  0  0  0
  -10.1752   -0.8406   -1.4883 H   0  0  0  0  0  0  0  0  0  0  0  0
   -6.1455   -1.2477   -3.4560 H   0  0  0  0  0  0  0  0  0  0  0  0
    0.9452    1.4062   -0.0471 H   0  0  0  0  0  0  0  0  0  0  0  0
    0.3703    0.2912   -1.3006 H   0  0  0  0  0  0  0  0  0  0  0  0
   -9.8947    3.0633   -0.1484 H   0  0  0  0  0  0  0  0  0  0  0  0
  -11.3174    1.1731   -0.6715 H   0  0  0  0  0  0  0  0  0  0  0  0
    3.7221    0.8202   -2.6495 H   0  0  0  0  0  0  0  0  0  0  0  0
    2.1545    0.1153   -3.0732 H   0  0  0  0  0  0  0  0  0  0  0  0
    2.2628    1.7788   -2.4591 H   0  0  0  0  0  0  0  0  0  0  0  0
    4.9269   -0.7082   -1.6439 H   0  0  0  0  0  0  0  0  0  0  0  0
    5.2508   -1.3602   -0.0505 H   0  0  0  0  0  0  0  0  0  0  0  0
    7.0394    0.3224   -1.7263 H   0  0  0  0  0  0  0  0  0  0  0  0
    7.5410    2.0776    0.7533 H   0  0  0  0  0  0  0  0  0  0  0  0
    9.4893    1.6710   -1.5772 H   0  0  0  0  0  0  0  0  0  0  0  0
    8.9802   -1.0228   -1.3645 H   0  0  0  0  0  0  0  0  0  0  0  0
    9.7817    0.4611    1.2191 H   0  0  0  0  0  0  0  0  0  0  0  0
   10.3864   -2.3861    0.1913 H   0  0  0  0  0  0  0  0  0  0  0  0
    9.2558   -2.0259    1.5178 H   0  0  0  0  0  0  0  0  0  0  0  0
    6.2811    2.8975   -0.9634 H   0  0  0  0  0  0  0  0  0  0  0  0
    9.5626    3.5560   -0.2967 H   0  0  0  0  0  0  0  0  0  0  0  0
   11.6314    0.9248   -0.0437 H   0  0  0  0  0  0  0  0  0  0  0  0
    7.5964   -2.9327    0.2282 H   0  0  0  0  0  0  0  0  0  0  0  0
  1 22  1  0  0  0  0
  1 72  1  0  0  0  0
  2 26  1  0  0  0  0
  2 35  1  0  0  0  0
  3 28  2  0  0  0  0
  4 35  2  0  0  0  0
  5 38  1  0  0  0  0
  5 39  1  0  0  0  0
  6 39  1  0  0  0  0
  6 42  1  0  0  0  0
  7 40  1  0  0  0  0
  7 89  1  0  0  0  0
  8 41  1  0  0  0  0
  8 90  1  0  0  0  0
  9 43  1  0  0  0  0
  9 91  1  0  0  0  0
 10 44  1  0  0  0  0
 10 92  1  0  0  0  0
 11 12  1  0  0  0  0
 11 14  1  0  0  0  0
 11 16  1  0  0  0  0
 11 23  1  0  0  0  0
 12 13  1  0  0  0  0
 12 17  1  0  0  0  0
 12 45  1  0  0  0  0
 13 15  1  0  0  0  0
 13 22  1  0  0  0  0
 13 46  1  0  0  0  0
 14 18  1  0  0  0  0
 14 21  1  0  0  0  0
 14 47  1  0  0  0  0
 15 19  1  0  0  0  0
 15 20  1  0  0  0  0
 15 48  1  0  0  0  0
 16 19  1  0  0  0  0
 16 49  1  0  0  0  0
 16 50  1  0  0  0  0
 17 18  1  0  0  0  0
 17 51  1  0  0  0  0
 17 52  1  0  0  0  0
 18 53  1  0  0  0  0
 18 54  1  0  0  0  0
 19 55  1  0  0  0  0
 19 56  1  0  0  0  0
 20 24  1  0  0  0  0
 20 27  1  0  0  0  0
 20 28  1  0  0  0  0
 21 26  1  0  0  0  0
 21 29  1  0  0  0  0
 21 57  1  0  0  0  0
 22 25  1  0  0  0  0
 22 58  1  0  0  0  0
 23 59  1  0  0  0  0
 23 60  1  0  0  0  0
 23 61  1  0  0  0  0
 24 25  2  0  0  0  0
 24 30  1  0  0  0  0
 25 62  1  0  0  0  0
 26 31  1  0  0  0  0
 26 63  1  0  0  0  0
 27 64  1  0  0  0  0
 27 65  1  0  0  0  0
 27 66  1  0  0  0  0
 28 32  1  0  0  0  0
 29 67  1  0  0  0  0
 29 68  1  0  0  0  0
 29 69  1  0  0  0  0
 30 33  1  0  0  0  0
 30 70  1  0  0  0  0
 30 71  1  0  0  0  0
 31 34  1  0  0  0  0
 31 73  1  0  0  0  0
 31 74  1  0  0  0  0
 32 33  2  0  0  0  0
 32 75  1  0  0  0  0
 33 76  1  0  0  0  0
 34 36  2  0  0  0  0
 34 37  1  0  0  0  0
 35 36  1  0  0  0  0
 36 38  1  0  0  0  0
 37 77  1  0  0  0  0
 37 78  1  0  0  0  0
 37 79  1  0  0  0  0
 38 80  1  0  0  0  0
 38 81  1  0  0  0  0
 39 40  1  0  0  0  0
 39 82  1  0  0  0  0
 40 41  1  0  0  0  0
 40 83  1  0  0  0  0
 41 43  1  0  0  0  0
 41 84  1  0  0  0  0
 42 43  1  0  0  0  0
 42 44  1  0  0  0  0
 42 85  1  0  0  0  0
 43 86  1  0  0  0  0
 44 87  1  0  0  0  0
 44 88  1  0  0  0  0
M  END
> <PUBCHEM_COMPOUND_CID>
14825627

> <PUBCHEM_CONFORMER_RMSD>
1.2

> <PUBCHEM_CONFORMER_DIVERSEORDER>
1
23
41
26
3
10
25
11
15
35
34
40
13
29
8
16
22
38
7
39
4
20
32
9
31
37
5
12
19
36
33
14
27
2
6
21
17
30
24
28
18

> <PUBCHEM_MMFF94_PARTIAL_CHARGES>
39
1 -0.68
10 -0.68
2 -0.43
20 0.2
22 0.42
24 -0.28
25 -0.29
26 0.28
28 0.49
3 -0.57
30 0.28
31 0.14
32 -0.14
33 -0.29
34 -0.28
35 0.71
36 -0.12
37 0.14
38 0.42
39 0.56
4 -0.57
40 0.28
41 0.28
42 0.28
43 0.28
44 0.28
5 -0.56
6 -0.56
62 0.15
7 -0.68
72 0.4
75 0.15
76 0.15
8 -0.68
89 0.4
9 -0.68
90 0.4
91 0.4
92 0.4

> <PUBCHEM_EFFECTIVE_ROTOR_COUNT>
9.2

> <PUBCHEM_PHARMACOPHORE_FEATURES>
21
1 1 acceptor
1 1 donor
1 10 acceptor
1 10 donor
1 29 hydrophobe
1 3 acceptor
1 4 acceptor
1 5 acceptor
1 6 acceptor
1 7 acceptor
1 7 donor
1 8 acceptor
1 8 donor
1 9 acceptor
1 9 donor
5 11 12 14 17 18 rings
6 11 12 13 15 16 19 rings
6 13 15 20 22 24 25 rings
6 2 26 31 34 35 36 rings
6 20 24 28 30 32 33 rings
6 6 39 40 41 42 43 rings

> <PUBCHEM_HEAVY_ATOM_COUNT>
44

> <PUBCHEM_ATOM_DEF_STEREO_COUNT>
14

> <PUBCHEM_ATOM_UDEF_STEREO_COUNT>
0

> <PUBCHEM_BOND_DEF_STEREO_COUNT>
0

> <PUBCHEM_BOND_UDEF_STEREO_COUNT>
0

> <PUBCHEM_ISOTOPIC_ATOM_COUNT>
0

> <PUBCHEM_COMPONENT_COUNT>
1

> <PUBCHEM_CACTVS_TAUTO_COUNT>
3

> <PUBCHEM_CONFORMER_ID>
00E2389B00000001

> <PUBCHEM_MMFF94_ENERGY>
138.6635

> <PUBCHEM_FEATURE_SELFOVERLAP>
106.741

> <PUBCHEM_SHAPE_FINGERPRINT>
10 15 14418129617253459747
10190206 1 17417818301805359617
10580692 12 18409168780397461728
11061554 47 17676482848508974300
11181472 205 18338800005099998760
11456790 92 14129060322108673949
11966995 178 17312821568560973338
12013929 2 18261115154487216530
12013929 94 9223224153026591661
12089408 11 18413670214517569122
12098696 120 17095235930563373942
12144603 126 18409726257476312818
12522641 24 18411694401730236096
12522641 33 18409168797045458146
12539747 91 15554445189356480058
13811026 1 18412831283071882142
13947934 56 18187932815319514875
14040221 8 17989491792707303080
14294032 229 18198625441868110209
150020 25 16415476073699128555
15061470 23 18410571786566526268
15247644 1 13110965331568524540
15461852 350 18130786780739203339
1577012 14 18408599258659118851
15840311 113 18186524319781657364
1754911 235 18334857220737807760
19302320 297 14345801573884438390
19315958 150 18342183245819598510
21362857 166 16630264541458637500
21792934 111 17676207988309075492
21895431 317 12031521952111615964
22164985 6 17775279474095748264
23576562 1 18198619020823060181
25269216 80 18129937997040154831
3092352 35 18260546732434983947
3525247 94 18408604759848041618
4017518 198 14979955879172625477
4625314 4 17203040889276424904
4760202 170 18412261770557210512
4874694 18 17775569732708159790
5028188 123 18343297090290830751
54039377 194 11312058742577904393
57303763 39 8790586118606192048
6081469 158 17846779594258133280
6201320 215 18339360743615741733
6691757 9 17418104243269184091
9962374 69 12031780366706748152

> <PUBCHEM_SHAPE_MULTIPOLES>
846.81
41.77
2.27
1.67
48.19
0.42
0.06
11.83
-7.28
1.75
-0.32
-1.48
-0.23
-2.57

> <PUBCHEM_SHAPE_SELFOVERLAP>
1814.498

> <PUBCHEM_SHAPE_VOLUME>
462.8

> <PUBCHEM_COORDINATE_TYPE>
2
5
10

$$$$
