102139046
  -OEChem-11222012123D

109114  0     1  0  0  0  0  0999 V2000
   -0.5111   -3.5927    0.0379 O   0  0  0  0  0  0  0  0  0  0  0  0
    2.3358    1.3886    1.0488 O   0  0  0  0  0  0  0  0  0  0  0  0
   -7.5507    1.4916   -1.0848 O   0  0  0  0  0  0  0  0  0  0  0  0
    5.9407   -0.6546    0.0510 O   0  0  0  0  0  0  0  0  0  0  0  0
    6.8873    1.3956   -0.5366 O   0  0  0  0  0  0  0  0  0  0  0  0
   -9.7222    2.0607   -1.2936 O   0  0  0  0  0  0  0  0  0  0  0  0
    7.8919   -0.9491    2.0793 O   0  0  0  0  0  0  0  0  0  0  0  0
  -10.8566    2.7588    1.6242 O   0  0  0  0  0  0  0  0  0  0  0  0
   10.3768    0.4960    1.4334 O   0  0  0  0  0  0  0  0  0  0  0  0
    9.7971    3.2350    0.7138 O   0  0  0  0  0  0  0  0  0  0  0  0
    6.2955    3.8706   -1.5754 O   0  0  0  0  0  0  0  0  0  0  0  0
   -2.7266    0.1754   -0.8811 C   0  0  1  0  0  0  0  0  0  0  0  0
   -2.0699   -0.9346   -0.0332 C   0  0  2  0  0  0  0  0  0  0  0  0
   -0.6153   -1.2319   -0.4388 C   0  0  1  0  0  0  0  0  0  0  0  0
    0.2228    0.0770   -0.3263 C   0  0  1  0  0  0  0  0  0  0  0  0
   -4.1418    0.1694   -0.2526 C   0  0  2  0  0  0  0  0  0  0  0  0
    1.7269   -0.1484   -0.7718 C   0  0  2  0  0  0  0  0  0  0  0  0
   -1.9347    1.4689   -0.6496 C   0  0  0  0  0  0  0  0  0  0  0  0
   -3.1013   -2.0601   -0.0606 C   0  0  0  0  0  0  0  0  0  0  0  0
   -0.4529    1.2929   -1.0160 C   0  0  0  0  0  0  0  0  0  0  0  0
   -4.4582   -1.3330   -0.0774 C   0  0  0  0  0  0  0  0  0  0  0  0
   -0.0001   -2.3264    0.4563 C   0  0  2  0  0  0  0  0  0  0  0  0
   -5.2274    0.9185   -1.0121 C   0  0  1  0  0  0  0  0  0  0  0  0
   -2.7860   -0.1432   -2.3957 C   0  0  0  0  0  0  0  0  0  0  0  0
    2.2814   -1.4404   -0.1529 C   0  0  0  0  0  0  0  0  0  0  0  0
    2.6064    1.0675   -0.3189 C   0  0  2  0  0  0  0  0  0  0  0  0
    1.4960   -2.3796    0.4026 C   0  0  0  0  0  0  0  0  0  0  0  0
    1.8332   -0.2933   -2.3119 C   0  0  0  0  0  0  0  0  0  0  0  0
    3.7782   -1.6491   -0.2022 C   0  0  0  0  0  0  0  0  0  0  0  0
    4.1135    0.8320   -0.4605 C   0  0  0  0  0  0  0  0  0  0  0  0
   -6.5667    0.7965   -0.2992 C   0  0  1  0  0  0  0  0  0  0  0  0
    4.5533   -0.4286    0.2820 C   0  0  2  0  0  0  0  0  0  0  0  0
   -4.8494    2.3893   -1.1877 C   0  0  0  0  0  0  0  0  0  0  0  0
   -6.5122    1.3952    1.0951 C   0  0  0  0  0  0  0  0  0  0  0  0
   -0.4519   -4.5447    1.0882 C   0  0  0  0  0  0  0  0  0  0  0  0
   -7.8957    1.3976    1.6848 C   0  0  0  0  0  0  0  0  0  0  0  0
    6.7307    0.4415    0.5112 C   0  0  2  0  0  0  0  0  0  0  0  0
   -0.9891   -5.8742    0.5776 C   0  0  0  0  0  0  0  0  0  0  0  0
   -8.7948    1.6951   -0.5777 C   0  0  0  0  0  0  0  0  0  0  0  0
   -8.9800    1.4848    0.8884 C   0  0  0  0  0  0  0  0  0  0  0  0
    8.0903   -0.1073    0.9439 C   0  0  1  0  0  0  0  0  0  0  0  0
   -7.9297    1.3144    3.1856 C   0  0  0  0  0  0  0  0  0  0  0  0
   -0.1639   -6.4038   -0.5917 C   0  0  0  0  0  0  0  0  0  0  0  0
  -10.4088    1.4453    1.3497 C   0  0  0  0  0  0  0  0  0  0  0  0
    9.0541    1.0213    1.3111 C   0  0  2  0  0  0  0  0  0  0  0  0
    7.6502    2.5336   -0.1318 C   0  0  1  0  0  0  0  0  0  0  0  0
    9.0735    2.1051    0.2331 C   0  0  1  0  0  0  0  0  0  0  0  0
   -0.6775   -7.7523   -1.0706 C   0  0  0  0  0  0  0  0  0  0  0  0
    7.6392    3.5293   -1.2874 C   0  0  0  0  0  0  0  0  0  0  0  0
   -2.0324   -0.5874    1.0134 H   0  0  0  0  0  0  0  0  0  0  0  0
   -0.6129   -1.5947   -1.4729 H   0  0  0  0  0  0  0  0  0  0  0  0
    0.2282    0.3204    0.7474 H   0  0  0  0  0  0  0  0  0  0  0  0
   -4.0341    0.6017    0.7514 H   0  0  0  0  0  0  0  0  0  0  0  0
   -2.0028    1.7759    0.4019 H   0  0  0  0  0  0  0  0  0  0  0  0
   -2.3034    2.3045   -1.2452 H   0  0  0  0  0  0  0  0  0  0  0  0
   -3.0193   -2.7135    0.8136 H   0  0  0  0  0  0  0  0  0  0  0  0
   -2.9931   -2.6835   -0.9552 H   0  0  0  0  0  0  0  0  0  0  0  0
   -0.3743    1.2105   -2.1039 H   0  0  0  0  0  0  0  0  0  0  0  0
    0.0742    2.2133   -0.7401 H   0  0  0  0  0  0  0  0  0  0  0  0
   -5.0710   -1.7277   -0.8959 H   0  0  0  0  0  0  0  0  0  0  0  0
   -5.0026   -1.5086    0.8570 H   0  0  0  0  0  0  0  0  0  0  0  0
   -0.2918   -2.1344    1.4982 H   0  0  0  0  0  0  0  0  0  0  0  0
   -5.3617    0.4973   -2.0167 H   0  0  0  0  0  0  0  0  0  0  0  0
   -3.4183   -1.0094   -2.6151 H   0  0  0  0  0  0  0  0  0  0  0  0
   -1.8013   -0.3619   -2.8176 H   0  0  0  0  0  0  0  0  0  0  0  0
   -3.1840    0.7005   -2.9679 H   0  0  0  0  0  0  0  0  0  0  0  0
    2.3398    1.9532   -0.9076 H   0  0  0  0  0  0  0  0  0  0  0  0
    1.9827   -3.2454    0.8429 H   0  0  0  0  0  0  0  0  0  0  0  0
    1.5835    0.6416   -2.8238 H   0  0  0  0  0  0  0  0  0  0  0  0
    1.1686   -1.0739   -2.6960 H   0  0  0  0  0  0  0  0  0  0  0  0
    2.8453   -0.5562   -2.6374 H   0  0  0  0  0  0  0  0  0  0  0  0
    4.0862   -2.5185    0.3934 H   0  0  0  0  0  0  0  0  0  0  0  0
    4.0773   -1.8945   -1.2294 H   0  0  0  0  0  0  0  0  0  0  0  0
    4.6064    1.7180   -0.0483 H   0  0  0  0  0  0  0  0  0  0  0  0
    4.4007    0.7748   -1.5171 H   0  0  0  0  0  0  0  0  0  0  0  0
   -6.8808   -0.2543   -0.2606 H   0  0  0  0  0  0  0  0  0  0  0  0
    4.3883   -0.3159    1.3621 H   0  0  0  0  0  0  0  0  0  0  0  0
   -4.3857    2.8170   -0.2931 H   0  0  0  0  0  0  0  0  0  0  0  0
   -5.7170    3.0136   -1.4275 H   0  0  0  0  0  0  0  0  0  0  0  0
   -4.1746    2.5216   -2.0370 H   0  0  0  0  0  0  0  0  0  0  0  0
   -6.1522    2.4296    1.1043 H   0  0  0  0  0  0  0  0  0  0  0  0
   -5.8595    0.8008    1.7420 H   0  0  0  0  0  0  0  0  0  0  0  0
    2.8405    2.1897    1.2697 H   0  0  0  0  0  0  0  0  0  0  0  0
   -1.0761   -4.2086    1.9245 H   0  0  0  0  0  0  0  0  0  0  0  0
    0.5688   -4.6891    1.4548 H   0  0  0  0  0  0  0  0  0  0  0  0
    6.2487    0.9140    1.3796 H   0  0  0  0  0  0  0  0  0  0  0  0
   -2.0269   -5.7420    0.2473 H   0  0  0  0  0  0  0  0  0  0  0  0
   -0.9926   -6.6023    1.3968 H   0  0  0  0  0  0  0  0  0  0  0  0
    8.5185   -0.7365    0.1547 H   0  0  0  0  0  0  0  0  0  0  0  0
   -7.5820    0.3307    3.5173 H   0  0  0  0  0  0  0  0  0  0  0  0
   -8.9251    1.4799    3.6051 H   0  0  0  0  0  0  0  0  0  0  0  0
   -7.2733    2.0771    3.6185 H   0  0  0  0  0  0  0  0  0  0  0  0
    0.8852   -6.5070   -0.2906 H   0  0  0  0  0  0  0  0  0  0  0  0
   -0.1917   -5.6985   -1.4301 H   0  0  0  0  0  0  0  0  0  0  0  0
  -10.5273    0.8433    2.2556 H   0  0  0  0  0  0  0  0  0  0  0  0
  -11.0669    0.9919    0.6002 H   0  0  0  0  0  0  0  0  0  0  0  0
    8.8036    1.4478    2.2895 H   0  0  0  0  0  0  0  0  0  0  0  0
    7.1476    3.0033    0.7247 H   0  0  0  0  0  0  0  0  0  0  0  0
    9.6000    1.7329   -0.6543 H   0  0  0  0  0  0  0  0  0  0  0  0
   -1.7156   -7.6786   -1.4100 H   0  0  0  0  0  0  0  0  0  0  0  0
   -0.6293   -8.4975   -0.2701 H   0  0  0  0  0  0  0  0  0  0  0  0
   -0.0714   -8.1134   -1.9073 H   0  0  0  0  0  0  0  0  0  0  0  0
    7.5120   -0.4089    2.7931 H   0  0  0  0  0  0  0  0  0  0  0  0
    8.0705    3.0839   -2.1901 H   0  0  0  0  0  0  0  0  0  0  0  0
    8.1875    4.4423   -1.0365 H   0  0  0  0  0  0  0  0  0  0  0  0
  -10.8226    3.2652    0.7946 H   0  0  0  0  0  0  0  0  0  0  0  0
   10.6223    0.0935    0.5829 H   0  0  0  0  0  0  0  0  0  0  0  0
    9.3301    3.5813    1.4933 H   0  0  0  0  0  0  0  0  0  0  0  0
    6.3115    4.5002   -2.3162 H   0  0  0  0  0  0  0  0  0  0  0  0
  1 22  1  0  0  0  0
  1 35  1  0  0  0  0
  2 26  1  0  0  0  0
  2 83  1  0  0  0  0
  3 31  1  0  0  0  0
  3 39  1  0  0  0  0
  4 32  1  0  0  0  0
  4 37  1  0  0  0  0
  5 37  1  0  0  0  0
  5 46  1  0  0  0  0
  6 39  2  0  0  0  0
  7 41  1  0  0  0  0
  7103  1  0  0  0  0
  8 44  1  0  0  0  0
  8106  1  0  0  0  0
  9 45  1  0  0  0  0
  9107  1  0  0  0  0
 10 47  1  0  0  0  0
 10108  1  0  0  0  0
 11 49  1  0  0  0  0
 11109  1  0  0  0  0
 12 13  1  0  0  0  0
 12 16  1  0  0  0  0
 12 18  1  0  0  0  0
 12 24  1  0  0  0  0
 13 14  1  0  0  0  0
 13 19  1  0  0  0  0
 13 50  1  0  0  0  0
 14 15  1  0  0  0  0
 14 22  1  0  0  0  0
 14 51  1  0  0  0  0
 15 17  1  0  0  0  0
 15 20  1  0  0  0  0
 15 52  1  0  0  0  0
 16 21  1  0  0  0  0
 16 23  1  0  0  0  0
 16 53  1  0  0  0  0
 17 25  1  0  0  0  0
 17 26  1  0  0  0  0
 17 28  1  0  0  0  0
 18 20  1  0  0  0  0
 18 54  1  0  0  0  0
 18 55  1  0  0  0  0
 19 21  1  0  0  0  0
 19 56  1  0  0  0  0
 19 57  1  0  0  0  0
 20 58  1  0  0  0  0
 20 59  1  0  0  0  0
 21 60  1  0  0  0  0
 21 61  1  0  0  0  0
 22 27  1  0  0  0  0
 22 62  1  0  0  0  0
 23 31  1  0  0  0  0
 23 33  1  0  0  0  0
 23 63  1  0  0  0  0
 24 64  1  0  0  0  0
 24 65  1  0  0  0  0
 24 66  1  0  0  0  0
 25 27  2  0  0  0  0
 25 29  1  0  0  0  0
 26 30  1  0  0  0  0
 26 67  1  0  0  0  0
 27 68  1  0  0  0  0
 28 69  1  0  0  0  0
 28 70  1  0  0  0  0
 28 71  1  0  0  0  0
 29 32  1  0  0  0  0
 29 72  1  0  0  0  0
 29 73  1  0  0  0  0
 30 32  1  0  0  0  0
 30 74  1  0  0  0  0
 30 75  1  0  0  0  0
 31 34  1  0  0  0  0
 31 76  1  0  0  0  0
 32 77  1  0  0  0  0
 33 78  1  0  0  0  0
 33 79  1  0  0  0  0
 33 80  1  0  0  0  0
 34 36  1  0  0  0  0
 34 81  1  0  0  0  0
 34 82  1  0  0  0  0
 35 38  1  0  0  0  0
 35 84  1  0  0  0  0
 35 85  1  0  0  0  0
 36 40  2  0  0  0  0
 36 42  1  0  0  0  0
 37 41  1  0  0  0  0
 37 86  1  0  0  0  0
 38 43  1  0  0  0  0
 38 87  1  0  0  0  0
 38 88  1  0  0  0  0
 39 40  1  0  0  0  0
 40 44  1  0  0  0  0
 41 45  1  0  0  0  0
 41 89  1  0  0  0  0
 42 90  1  0  0  0  0
 42 91  1  0  0  0  0
 42 92  1  0  0  0  0
 43 48  1  0  0  0  0
 43 93  1  0  0  0  0
 43 94  1  0  0  0  0
 44 95  1  0  0  0  0
 44 96  1  0  0  0  0
 45 47  1  0  0  0  0
 45 97  1  0  0  0  0
 46 47  1  0  0  0  0
 46 49  1  0  0  0  0
 46 98  1  0  0  0  0
 47 99  1  0  0  0  0
 48100  1  0  0  0  0
 48101  1  0  0  0  0
 48102  1  0  0  0  0
 49104  1  0  0  0  0
 49105  1  0  0  0  0
M  END
> <PUBCHEM_COMPOUND_CID>
102139046

> <PUBCHEM_CONFORMER_RMSD>
1.4

> <PUBCHEM_CONFORMER_DIVERSEORDER>
2
6
4
7
1
5
3

> <PUBCHEM_MMFF94_PARTIAL_CHARGES>
39
1 -0.56
10 -0.68
103 0.4
106 0.4
107 0.4
108 0.4
109 0.4
11 -0.68
17 0.14
2 -0.68
22 0.42
25 -0.28
26 0.28
27 -0.29
29 0.14
3 -0.43
31 0.28
32 0.28
34 0.14
35 0.28
36 -0.28
37 0.56
39 0.71
4 -0.56
40 -0.12
41 0.28
42 0.14
44 0.42
45 0.28
46 0.28
47 0.28
49 0.28
5 -0.56
6 -0.57
68 0.15
7 -0.68
8 -0.68
83 0.4
9 -0.68

> <PUBCHEM_EFFECTIVE_ROTOR_COUNT>
13.8

> <PUBCHEM_PHARMACOPHORE_FEATURES>
24
1 1 acceptor
1 10 acceptor
1 10 donor
1 11 acceptor
1 11 donor
1 2 acceptor
1 2 donor
1 33 hydrophobe
1 4 acceptor
1 48 hydrophobe
1 5 acceptor
1 6 acceptor
1 7 acceptor
1 7 donor
1 8 acceptor
1 8 donor
1 9 acceptor
1 9 donor
5 12 13 16 19 21 rings
6 12 13 14 15 18 20 rings
6 14 15 17 22 25 27 rings
6 17 25 26 29 30 32 rings
6 3 31 34 36 39 40 rings
6 5 37 41 45 46 47 rings

> <PUBCHEM_HEAVY_ATOM_COUNT>
49

> <PUBCHEM_ATOM_DEF_STEREO_COUNT>
16

> <PUBCHEM_ATOM_UDEF_STEREO_COUNT>
0

> <PUBCHEM_BOND_DEF_STEREO_COUNT>
0

> <PUBCHEM_BOND_UDEF_STEREO_COUNT>
0

> <PUBCHEM_ISOTOPIC_ATOM_COUNT>
0

> <PUBCHEM_COMPONENT_COUNT>
1

> <PUBCHEM_CACTVS_TAUTO_COUNT>
1

> <PUBCHEM_CONFORMER_ID>
061684A600000002

> <PUBCHEM_MMFF94_ENERGY>
154.6715

> <PUBCHEM_FEATURE_SELFOVERLAP>
121.967

> <PUBCHEM_SHAPE_FINGERPRINT>
10 15 18040154006790850181
10190206 1 18269258201948850095
10533779 47 17531249417956754520
10930396 42 16877660167644628325
11534866 41 15574710275853356088
12098696 120 18261674792018734437
12539765 74 18272657822369832990
13008946 119 18342453750848500643
13383668 362 17168721858450701181
13740195 50 17821446868246274673
14040222 383 18339636853988090555
15247644 1 13695592144200102977
15840311 113 18261112959527060508
15890870 6 18410288108113181301
16991971 28 9943802287849043199
18393751 57 18260548909249926535
19302320 297 18113900485898503196
19315958 150 18409448064323965478
2026 5 7853588915180869688
21033648 29 18339349855361092674
21895431 317 11674867893294895640
23576562 1 14476376288700631153
24204213 200 18339074874539659371
24771293 8 18202004309545338229
25242607 90 10881405360851839089
3178227 256 18187369809135671505
3711267 37 18342745087344773369
4173938 188 18409736180037495731
4403749 210 18336833095274480891
4516262 110 18339918213648984959
54039377 194 8646764500683136961
6081469 158 10664100047359782680
6698420 124 18271803570501364192
9962374 69 12252192887116482145

> <PUBCHEM_SHAPE_MULTIPOLES>
943.83
34.13
6.53
1.77
0.49
18.47
0.39
-48.14
16.23
-1.22
-1.14
1.95
-0.74
-2.17

> <PUBCHEM_SHAPE_SELFOVERLAP>
1990.008

> <PUBCHEM_SHAPE_VOLUME>
524.5

> <PUBCHEM_COORDINATE_TYPE>
2
5
10

$$$$
