102139043
  -OEChem-11222012113D

100105  0     1  0  0  0  0  0999 V2000
    0.0964   -1.8051   -1.1472 O   0  0  0  0  0  0  0  0  0  0  0  0
    2.1873    0.1434    2.2079 O   0  0  0  0  0  0  0  0  0  0  0  0
   -7.9196    1.1472    0.2700 O   0  0  0  0  0  0  0  0  0  0  0  0
    5.7991    1.2883    0.2949 O   0  0  0  0  0  0  0  0  0  0  0  0
    7.1438   -0.4220    1.1379 O   0  0  0  0  0  0  0  0  0  0  0  0
  -10.1565    1.3971    0.1408 O   0  0  0  0  0  0  0  0  0  0  0  0
    7.2491    1.2014   -2.1337 O   0  0  0  0  0  0  0  0  0  0  0  0
   -7.9923   -3.6868    1.1838 O   0  0  0  0  0  0  0  0  0  0  0  0
   10.0033    0.2334   -1.7363 O   0  0  0  0  0  0  0  0  0  0  0  0
   10.0001   -2.2461   -0.2504 O   0  0  0  0  0  0  0  0  0  0  0  0
    7.1510   -2.5626    2.8621 O   0  0  0  0  0  0  0  0  0  0  0  0
   -2.9497    1.0400    0.0687 C   0  0  1  0  0  0  0  0  0  0  0  0
   -2.0627    0.0329   -0.6906 C   0  0  2  0  0  0  0  0  0  0  0  0
   -0.6326    0.5368   -0.9281 C   0  0  1  0  0  0  0  0  0  0  0  0
    0.0294    0.8796    0.4420 C   0  0  1  0  0  0  0  0  0  0  0  0
   -4.2838    0.2537    0.0589 C   0  0  2  0  0  0  0  0  0  0  0  0
    1.4839    1.4864    0.2489 C   0  0  2  0  0  0  0  0  0  0  0  0
   -2.3317    1.2346    1.4600 C   0  0  0  0  0  0  0  0  0  0  0  0
   -2.9085   -0.3541   -1.9002 C   0  0  0  0  0  0  0  0  0  0  0  0
   -0.8820    1.7373    1.3641 C   0  0  0  0  0  0  0  0  0  0  0  0
   -4.3545   -0.3297   -1.3717 C   0  0  0  0  0  0  0  0  0  0  0  0
    0.2292   -0.4923   -1.6896 C   0  0  1  0  0  0  0  0  0  0  0  0
   -5.5348    1.0303    0.4443 C   0  0  1  0  0  0  0  0  0  0  0  0
   -3.1025    2.4082   -0.6403 C   0  0  0  0  0  0  0  0  0  0  0  0
    2.2689    0.7032   -0.8165 C   0  0  0  0  0  0  0  0  0  0  0  0
    2.2654    1.4384    1.6061 C   0  0  2  0  0  0  0  0  0  0  0  0
    1.6921   -0.1783   -1.6520 C   0  0  0  0  0  0  0  0  0  0  0  0
    1.4077    2.9608   -0.2293 C   0  0  0  0  0  0  0  0  0  0  0  0
    3.7566    0.9590   -0.9090 C   0  0  0  0  0  0  0  0  0  0  0  0
    3.7546    1.7749    1.4755 C   0  0  0  0  0  0  0  0  0  0  0  0
   -6.7824    0.3462   -0.0961 C   0  0  1  0  0  0  0  0  0  0  0  0
    4.4442    0.8760    0.4500 C   0  0  2  0  0  0  0  0  0  0  0  0
   -5.6284    1.1878    1.9620 C   0  0  0  0  0  0  0  0  0  0  0  0
   -6.9409   -1.0530    0.4719 C   0  0  0  0  0  0  0  0  0  0  0  0
    0.4150   -2.7968   -2.1112 C   0  0  0  0  0  0  0  0  0  0  0  0
   -8.2670   -1.6139    0.0377 C   0  0  0  0  0  0  0  0  0  0  0  0
    6.6423    0.1891   -0.0485 C   0  0  2  0  0  0  0  0  0  0  0  0
   -9.1741    0.6647    0.0714 C   0  0  0  0  0  0  0  0  0  0  0  0
   -9.3107   -0.7958   -0.2052 C   0  0  0  0  0  0  0  0  0  0  0  0
    7.7913    0.7259   -0.9019 C   0  0  1  0  0  0  0  0  0  0  0  0
   -8.2999   -3.1131   -0.0715 C   0  0  0  0  0  0  0  0  0  0  0  0
    8.8258   -0.3624   -1.1895 C   0  0  2  0  0  0  0  0  0  0  0  0
  -10.6646   -1.2270   -0.6915 C   0  0  0  0  0  0  0  0  0  0  0  0
    7.9780   -1.5489    0.8632 C   0  0  1  0  0  0  0  0  0  0  0  0
    9.2203   -1.1025    0.0887 C   0  0  1  0  0  0  0  0  0  0  0  0
    8.3445   -2.1863    2.1997 C   0  0  0  0  0  0  0  0  0  0  0  0
   -1.9820   -0.8757   -0.0710 H   0  0  0  0  0  0  0  0  0  0  0  0
   -0.6688    1.4434   -1.5425 H   0  0  0  0  0  0  0  0  0  0  0  0
    0.1378   -0.0842    0.9619 H   0  0  0  0  0  0  0  0  0  0  0  0
   -4.1740   -0.6044    0.7395 H   0  0  0  0  0  0  0  0  0  0  0  0
   -2.8967    1.9594    2.0513 H   0  0  0  0  0  0  0  0  0  0  0  0
   -2.3434    0.2912    2.0204 H   0  0  0  0  0  0  0  0  0  0  0  0
   -2.6423   -1.3437   -2.2852 H   0  0  0  0  0  0  0  0  0  0  0  0
   -2.7867    0.3635   -2.7196 H   0  0  0  0  0  0  0  0  0  0  0  0
   -0.9083    2.7753    1.0207 H   0  0  0  0  0  0  0  0  0  0  0  0
   -0.4619    1.7610    2.3761 H   0  0  0  0  0  0  0  0  0  0  0  0
   -4.9347    0.2934   -2.0602 H   0  0  0  0  0  0  0  0  0  0  0  0
   -4.7695   -1.3407   -1.3950 H   0  0  0  0  0  0  0  0  0  0  0  0
   -0.1095   -0.4842   -2.7345 H   0  0  0  0  0  0  0  0  0  0  0  0
   -5.5360    2.0383    0.0162 H   0  0  0  0  0  0  0  0  0  0  0  0
   -3.6484    2.3326   -1.5859 H   0  0  0  0  0  0  0  0  0  0  0  0
   -3.6394    3.1212   -0.0046 H   0  0  0  0  0  0  0  0  0  0  0  0
   -2.1400    2.8727   -0.8707 H   0  0  0  0  0  0  0  0  0  0  0  0
    1.8133    2.1415    2.3153 H   0  0  0  0  0  0  0  0  0  0  0  0
    2.3154   -0.6856   -2.3847 H   0  0  0  0  0  0  0  0  0  0  0  0
    1.0092    3.6180    0.5503 H   0  0  0  0  0  0  0  0  0  0  0  0
    0.7760    3.0701   -1.1166 H   0  0  0  0  0  0  0  0  0  0  0  0
    2.3893    3.3684   -0.4925 H   0  0  0  0  0  0  0  0  0  0  0  0
    4.2326    0.2589   -1.6065 H   0  0  0  0  0  0  0  0  0  0  0  0
    3.9300    1.9483   -1.3516 H   0  0  0  0  0  0  0  0  0  0  0  0
    4.2606    1.6512    2.4418 H   0  0  0  0  0  0  0  0  0  0  0  0
    3.8922    2.8282    1.2028 H   0  0  0  0  0  0  0  0  0  0  0  0
   -6.7874    0.3278   -1.1908 H   0  0  0  0  0  0  0  0  0  0  0  0
    4.4063   -0.1557    0.8278 H   0  0  0  0  0  0  0  0  0  0  0  0
   -5.3601    0.2725    2.4995 H   0  0  0  0  0  0  0  0  0  0  0  0
   -6.6287    1.4868    2.2920 H   0  0  0  0  0  0  0  0  0  0  0  0
   -4.9606    1.9804    2.3079 H   0  0  0  0  0  0  0  0  0  0  0  0
   -6.9437   -1.0556    1.5681 H   0  0  0  0  0  0  0  0  0  0  0  0
   -6.1385   -1.7194    0.1502 H   0  0  0  0  0  0  0  0  0  0  0  0
    2.6161    0.1956    3.0791 H   0  0  0  0  0  0  0  0  0  0  0  0
    0.2130   -3.7745   -1.6639 H   0  0  0  0  0  0  0  0  0  0  0  0
    1.4720   -2.7729   -2.3889 H   0  0  0  0  0  0  0  0  0  0  0  0
   -0.2158   -2.6988   -3.0006 H   0  0  0  0  0  0  0  0  0  0  0  0
    6.0806   -0.5558   -0.6286 H   0  0  0  0  0  0  0  0  0  0  0  0
    8.2640    1.5852   -0.4118 H   0  0  0  0  0  0  0  0  0  0  0  0
   -7.5587   -3.4492   -0.8051 H   0  0  0  0  0  0  0  0  0  0  0  0
   -9.2705   -3.5052   -0.3799 H   0  0  0  0  0  0  0  0  0  0  0  0
    8.4574   -1.0624   -1.9486 H   0  0  0  0  0  0  0  0  0  0  0  0
  -11.3684   -1.2814    0.1452 H   0  0  0  0  0  0  0  0  0  0  0  0
  -10.6523   -2.1943   -1.1987 H   0  0  0  0  0  0  0  0  0  0  0  0
  -11.0559   -0.5112   -1.4234 H   0  0  0  0  0  0  0  0  0  0  0  0
    7.3961   -2.2815    0.2873 H   0  0  0  0  0  0  0  0  0  0  0  0
    9.8466   -0.4529    0.7123 H   0  0  0  0  0  0  0  0  0  0  0  0
    6.8184    0.4540   -2.5824 H   0  0  0  0  0  0  0  0  0  0  0  0
   -7.9863   -4.6520    1.0662 H   0  0  0  0  0  0  0  0  0  0  0  0
    8.8707   -1.4717    2.8414 H   0  0  0  0  0  0  0  0  0  0  0  0
    8.9663   -3.0763    2.0633 H   0  0  0  0  0  0  0  0  0  0  0  0
   10.3455    0.8751   -1.0907 H   0  0  0  0  0  0  0  0  0  0  0  0
    9.4488   -2.8356   -0.7928 H   0  0  0  0  0  0  0  0  0  0  0  0
    7.4073   -2.9618    3.7109 H   0  0  0  0  0  0  0  0  0  0  0  0
  1 22  1  0  0  0  0
  1 35  1  0  0  0  0
  2 26  1  0  0  0  0
  2 80  1  0  0  0  0
  3 31  1  0  0  0  0
  3 38  1  0  0  0  0
  4 32  1  0  0  0  0
  4 37  1  0  0  0  0
  5 37  1  0  0  0  0
  5 44  1  0  0  0  0
  6 38  2  0  0  0  0
  7 40  1  0  0  0  0
  7 94  1  0  0  0  0
  8 41  1  0  0  0  0
  8 95  1  0  0  0  0
  9 42  1  0  0  0  0
  9 98  1  0  0  0  0
 10 45  1  0  0  0  0
 10 99  1  0  0  0  0
 11 46  1  0  0  0  0
 11100  1  0  0  0  0
 12 13  1  0  0  0  0
 12 16  1  0  0  0  0
 12 18  1  0  0  0  0
 12 24  1  0  0  0  0
 13 14  1  0  0  0  0
 13 19  1  0  0  0  0
 13 47  1  0  0  0  0
 14 15  1  0  0  0  0
 14 22  1  0  0  0  0
 14 48  1  0  0  0  0
 15 17  1  0  0  0  0
 15 20  1  0  0  0  0
 15 49  1  0  0  0  0
 16 21  1  0  0  0  0
 16 23  1  0  0  0  0
 16 50  1  0  0  0  0
 17 25  1  0  0  0  0
 17 26  1  0  0  0  0
 17 28  1  0  0  0  0
 18 20  1  0  0  0  0
 18 51  1  0  0  0  0
 18 52  1  0  0  0  0
 19 21  1  0  0  0  0
 19 53  1  0  0  0  0
 19 54  1  0  0  0  0
 20 55  1  0  0  0  0
 20 56  1  0  0  0  0
 21 57  1  0  0  0  0
 21 58  1  0  0  0  0
 22 27  1  0  0  0  0
 22 59  1  0  0  0  0
 23 31  1  0  0  0  0
 23 33  1  0  0  0  0
 23 60  1  0  0  0  0
 24 61  1  0  0  0  0
 24 62  1  0  0  0  0
 24 63  1  0  0  0  0
 25 27  2  0  0  0  0
 25 29  1  0  0  0  0
 26 30  1  0  0  0  0
 26 64  1  0  0  0  0
 27 65  1  0  0  0  0
 28 66  1  0  0  0  0
 28 67  1  0  0  0  0
 28 68  1  0  0  0  0
 29 32  1  0  0  0  0
 29 69  1  0  0  0  0
 29 70  1  0  0  0  0
 30 32  1  0  0  0  0
 30 71  1  0  0  0  0
 30 72  1  0  0  0  0
 31 34  1  0  0  0  0
 31 73  1  0  0  0  0
 32 74  1  0  0  0  0
 33 75  1  0  0  0  0
 33 76  1  0  0  0  0
 33 77  1  0  0  0  0
 34 36  1  0  0  0  0
 34 78  1  0  0  0  0
 34 79  1  0  0  0  0
 35 81  1  0  0  0  0
 35 82  1  0  0  0  0
 35 83  1  0  0  0  0
 36 39  2  0  0  0  0
 36 41  1  0  0  0  0
 37 40  1  0  0  0  0
 37 84  1  0  0  0  0
 38 39  1  0  0  0  0
 39 43  1  0  0  0  0
 40 42  1  0  0  0  0
 40 85  1  0  0  0  0
 41 86  1  0  0  0  0
 41 87  1  0  0  0  0
 42 45  1  0  0  0  0
 42 88  1  0  0  0  0
 43 89  1  0  0  0  0
 43 90  1  0  0  0  0
 43 91  1  0  0  0  0
 44 45  1  0  0  0  0
 44 46  1  0  0  0  0
 44 92  1  0  0  0  0
 45 93  1  0  0  0  0
 46 96  1  0  0  0  0
 46 97  1  0  0  0  0
M  END
> <PUBCHEM_COMPOUND_CID>
102139043

> <PUBCHEM_CONFORMER_RMSD>
1.2

> <PUBCHEM_CONFORMER_DIVERSEORDER>
1
13
12
10
19
7
18
16
6
5
11
3
15
9
17
8
20
2
4
14

> <PUBCHEM_MMFF94_PARTIAL_CHARGES>
39
1 -0.56
10 -0.68
100 0.4
11 -0.68
17 0.14
2 -0.68
22 0.42
25 -0.28
26 0.28
27 -0.29
29 0.14
3 -0.43
31 0.28
32 0.28
34 0.14
35 0.28
36 -0.28
37 0.56
38 0.71
39 -0.12
4 -0.56
40 0.28
41 0.42
42 0.28
43 0.14
44 0.28
45 0.28
46 0.28
5 -0.56
6 -0.57
65 0.15
7 -0.68
8 -0.68
80 0.4
9 -0.68
94 0.4
95 0.4
98 0.4
99 0.4

> <PUBCHEM_EFFECTIVE_ROTOR_COUNT>
10.8

> <PUBCHEM_PHARMACOPHORE_FEATURES>
23
1 1 acceptor
1 10 acceptor
1 10 donor
1 11 acceptor
1 11 donor
1 2 acceptor
1 2 donor
1 33 hydrophobe
1 4 acceptor
1 5 acceptor
1 6 acceptor
1 7 acceptor
1 7 donor
1 8 acceptor
1 8 donor
1 9 acceptor
1 9 donor
5 12 13 16 19 21 rings
6 12 13 14 15 18 20 rings
6 14 15 17 22 25 27 rings
6 17 25 26 29 30 32 rings
6 3 31 34 36 38 39 rings
6 5 37 40 42 44 45 rings

> <PUBCHEM_HEAVY_ATOM_COUNT>
46

> <PUBCHEM_ATOM_DEF_STEREO_COUNT>
16

> <PUBCHEM_ATOM_UDEF_STEREO_COUNT>
0

> <PUBCHEM_BOND_DEF_STEREO_COUNT>
0

> <PUBCHEM_BOND_UDEF_STEREO_COUNT>
0

> <PUBCHEM_ISOTOPIC_ATOM_COUNT>
0

> <PUBCHEM_COMPONENT_COUNT>
1

> <PUBCHEM_CACTVS_TAUTO_COUNT>
1

> <PUBCHEM_CONFORMER_ID>
061684A300000001

> <PUBCHEM_MMFF94_ENERGY>
157.4529

> <PUBCHEM_FEATURE_SELFOVERLAP>
116.893

> <PUBCHEM_SHAPE_FINGERPRINT>
10076449 9 12324242767783108135
10533779 47 16200162001276367622
11135926 11 17632287957033771325
11456790 92 17060341837653830986
11534866 41 18060140917135971870
11578821 258 8430316839750565271
12013929 2 18413105049194680769
12089408 11 18334296479036146309
12098696 120 16845573097681894253
12522641 33 16950281801892857835
12539745 222 18202004287785840969
12758862 56 17988638614375183553
12838862 33 17131824344889070453
13383668 1 18260539014278409159
13811026 1 18273501178000436887
13947947 74 11818992972262994573
14415361 349 16515684476427585867
14747282 305 18114166506696918906
15247644 1 18413109458987215303
15289351 153 17203610359370139833
15392192 104 18131636682448925062
15461852 350 18040434400116284469
15840311 113 18334860571551608980
1754911 235 16081369669704817989
19611394 137 18058171803584548611
20105231 36 18410009944324010791
21781051 124 18272094945456806374
21792934 111 15769771347838837048
232437 2 18411420609484828829
23576562 1 15720250537454489071
24893992 56 17775001323682044935
3383291 50 17489864943429113486
4017518 198 17240484719828844619
45377200 153 17677053554914707275
4874694 18 18202565065387130503
54039377 194 18410014338128575197
6523845 18 17418088815176126329

> <PUBCHEM_SHAPE_MULTIPOLES>
882.1
37.08
2.75
1.95
0.25
1.47
0.53
20.62
4.03
1.66
0.67
-3.5
0.66
-1.72

> <PUBCHEM_SHAPE_SELFOVERLAP>
1874.039

> <PUBCHEM_SHAPE_VOLUME>
485.7

> <PUBCHEM_COORDINATE_TYPE>
2
5
10

$$$$
