102139048
  -OEChem-11222012133D

 98103  0     1  0  0  0  0  0999 V2000
    5.2208   -1.9452   -1.9731 O   0  0  0  0  0  0  0  0  0  0  0  0
   -2.2885    1.4880    0.7465 O   0  0  0  0  0  0  0  0  0  0  0  0
    7.3036   -0.9510    2.3028 O   0  0  0  0  0  0  0  0  0  0  0  0
   11.2848   -0.4334   -0.0606 O   0  0  0  0  0  0  0  0  0  0  0  0
   -4.4632    2.0768    0.8300 O   0  0  0  0  0  0  0  0  0  0  0  0
   -6.2282   -0.5357    0.2402 O   0  0  0  0  0  0  0  0  0  0  0  0
   -8.1786    0.6846   -0.1476 O   0  0  0  0  0  0  0  0  0  0  0  0
   -7.7783   -2.8888    0.5005 O   0  0  0  0  0  0  0  0  0  0  0  0
  -10.5161   -2.3063    1.4201 O   0  0  0  0  0  0  0  0  0  0  0  0
  -11.7187   -0.2515   -0.2191 O   0  0  0  0  0  0  0  0  0  0  0  0
   -9.1669    2.8860   -1.4640 O   0  0  0  0  0  0  0  0  0  0  0  0
    2.6064    0.7583    0.2404 C   0  0  1  0  0  0  0  0  0  0  0  0
    3.3262   -0.0658   -0.8467 C   0  0  2  0  0  0  0  0  0  0  0  0
    4.8172    0.2732   -0.9860 C   0  0  1  0  0  0  0  0  0  0  0  0
    1.1694    0.2118    0.0569 C   0  0  2  0  0  0  0  0  0  0  0  0
    5.5311    0.0470    0.3840 C   0  0  2  0  0  0  0  0  0  0  0  0
    3.2583    0.4097    1.5852 C   0  0  0  0  0  0  0  0  0  0  0  0
    2.4226    0.0881   -2.0674 C   0  0  0  0  0  0  0  0  0  0  0  0
    4.7651    0.7121    1.5664 C   0  0  0  0  0  0  0  0  0  0  0  0
    1.0004    0.1389   -1.4787 C   0  0  0  0  0  0  0  0  0  0  0  0
    7.0590    0.4533    0.3119 C   0  0  2  0  0  0  0  0  0  0  0  0
    5.5066   -0.5535   -2.0899 C   0  0  1  0  0  0  0  0  0  0  0  0
    0.0528    0.9885    0.7397 C   0  0  1  0  0  0  0  0  0  0  0  0
    2.6528    2.2894    0.0085 C   0  0  0  0  0  0  0  0  0  0  0  0
    7.7025    0.0358   -1.0157 C   0  0  0  0  0  0  0  0  0  0  0  0
    6.9943   -0.4240   -2.0615 C   0  0  0  0  0  0  0  0  0  0  0  0
    7.8497   -0.3117    1.4027 C   0  0  0  0  0  0  0  0  0  0  0  0
    7.2545    1.9671    0.5305 C   0  0  0  0  0  0  0  0  0  0  0  0
   -1.2879    0.6981    0.0805 C   0  0  1  0  0  0  0  0  0  0  0  0
    9.2098    0.1214   -1.1196 C   0  0  0  0  0  0  0  0  0  0  0  0
   -0.0040    0.6577    2.2312 C   0  0  0  0  0  0  0  0  0  0  0  0
    9.3619   -0.2145    1.3670 C   0  0  0  0  0  0  0  0  0  0  0  0
    9.8808   -0.6575    0.0078 C   0  0  2  0  0  0  0  0  0  0  0  0
   -1.6508   -0.7729    0.1802 C   0  0  0  0  0  0  0  0  0  0  0  0
   -3.0497   -0.9715   -0.3349 C   0  0  0  0  0  0  0  0  0  0  0  0
   -3.6031    1.2765    0.4754 C   0  0  0  0  0  0  0  0  0  0  0  0
   -3.9603    0.0186   -0.2447 C   0  0  0  0  0  0  0  0  0  0  0  0
   -3.3090   -2.3343   -0.9147 C   0  0  0  0  0  0  0  0  0  0  0  0
   12.0064   -1.4437    0.6293 C   0  0  0  0  0  0  0  0  0  0  0  0
   -5.3676   -0.0379   -0.7661 C   0  0  0  0  0  0  0  0  0  0  0  0
   -7.5812   -0.6084   -0.2081 C   0  0  2  0  0  0  0  0  0  0  0  0
   -8.3262   -1.5861    0.7006 C   0  0  1  0  0  0  0  0  0  0  0  0
   -9.8217   -1.6104    0.3838 C   0  0  2  0  0  0  0  0  0  0  0  0
   -9.5310    0.6855   -0.6084 C   0  0  1  0  0  0  0  0  0  0  0  0
  -10.3926   -0.1948    0.3000 C   0  0  1  0  0  0  0  0  0  0  0  0
  -10.0136    2.1325   -0.6154 C   0  0  0  0  0  0  0  0  0  0  0  0
    3.2694   -1.1282   -0.5566 H   0  0  0  0  0  0  0  0  0  0  0  0
    4.9238    1.3290   -1.2638 H   0  0  0  0  0  0  0  0  0  0  0  0
    1.1546   -0.8267    0.4215 H   0  0  0  0  0  0  0  0  0  0  0  0
    5.4846   -1.0365    0.5769 H   0  0  0  0  0  0  0  0  0  0  0  0
    3.1109   -0.6517    1.8215 H   0  0  0  0  0  0  0  0  0  0  0  0
    2.8145    0.9808    2.4045 H   0  0  0  0  0  0  0  0  0  0  0  0
    2.5347   -0.7477   -2.7656 H   0  0  0  0  0  0  0  0  0  0  0  0
    2.6453    1.0102   -2.6162 H   0  0  0  0  0  0  0  0  0  0  0  0
    4.8872    1.7990    1.5387 H   0  0  0  0  0  0  0  0  0  0  0  0
    5.1925    0.3855    2.5206 H   0  0  0  0  0  0  0  0  0  0  0  0
    0.4402   -0.7433   -1.7994 H   0  0  0  0  0  0  0  0  0  0  0  0
    0.5129    1.0244   -1.8995 H   0  0  0  0  0  0  0  0  0  0  0  0
    5.1341   -0.2183   -3.0650 H   0  0  0  0  0  0  0  0  0  0  0  0
    0.2001    2.0706    0.6567 H   0  0  0  0  0  0  0  0  0  0  0  0
    2.0845    2.5985   -0.8745 H   0  0  0  0  0  0  0  0  0  0  0  0
    2.2426    2.8285    0.8698 H   0  0  0  0  0  0  0  0  0  0  0  0
    3.6703    2.6646   -0.1287 H   0  0  0  0  0  0  0  0  0  0  0  0
    7.5144   -0.7330   -2.9656 H   0  0  0  0  0  0  0  0  0  0  0  0
    7.0430    2.2519    1.5673 H   0  0  0  0  0  0  0  0  0  0  0  0
    6.6084    2.5552   -0.1299 H   0  0  0  0  0  0  0  0  0  0  0  0
    8.2825    2.2941    0.3435 H   0  0  0  0  0  0  0  0  0  0  0  0
   -1.3046    1.0363   -0.9607 H   0  0  0  0  0  0  0  0  0  0  0  0
    9.5735   -0.2663   -2.0803 H   0  0  0  0  0  0  0  0  0  0  0  0
    9.5313    1.1698   -1.1039 H   0  0  0  0  0  0  0  0  0  0  0  0
    0.1263   -0.4106    2.4324 H   0  0  0  0  0  0  0  0  0  0  0  0
   -0.9447    0.9717    2.6951 H   0  0  0  0  0  0  0  0  0  0  0  0
    0.7790    1.1926    2.7737 H   0  0  0  0  0  0  0  0  0  0  0  0
    9.6693    0.8091    1.6065 H   0  0  0  0  0  0  0  0  0  0  0  0
    9.7623   -0.8491    2.1647 H   0  0  0  0  0  0  0  0  0  0  0  0
    9.6628   -1.7242   -0.1454 H   0  0  0  0  0  0  0  0  0  0  0  0
    5.5962   -2.3938   -2.7503 H   0  0  0  0  0  0  0  0  0  0  0  0
   -1.6461   -1.1332    1.2155 H   0  0  0  0  0  0  0  0  0  0  0  0
   -0.9631   -1.4058   -0.3838 H   0  0  0  0  0  0  0  0  0  0  0  0
   -2.7448   -2.4627   -1.8441 H   0  0  0  0  0  0  0  0  0  0  0  0
   -4.3643   -2.5180   -1.1311 H   0  0  0  0  0  0  0  0  0  0  0  0
   -2.9921   -3.1091   -0.2080 H   0  0  0  0  0  0  0  0  0  0  0  0
   13.0728   -1.2717    0.4567 H   0  0  0  0  0  0  0  0  0  0  0  0
   11.7577   -2.4381    0.2456 H   0  0  0  0  0  0  0  0  0  0  0  0
   11.8322   -1.3958    1.7071 H   0  0  0  0  0  0  0  0  0  0  0  0
   -5.4201   -0.6759   -1.6561 H   0  0  0  0  0  0  0  0  0  0  0  0
   -5.6960    0.9587   -1.0871 H   0  0  0  0  0  0  0  0  0  0  0  0
   -7.5987   -0.9778   -1.2431 H   0  0  0  0  0  0  0  0  0  0  0  0
   -8.1609   -1.3320    1.7544 H   0  0  0  0  0  0  0  0  0  0  0  0
  -10.0172   -2.1660   -0.5408 H   0  0  0  0  0  0  0  0  0  0  0  0
   -9.5465    0.3182   -1.6437 H   0  0  0  0  0  0  0  0  0  0  0  0
  -10.4535    0.2382    1.3060 H   0  0  0  0  0  0  0  0  0  0  0  0
   -7.9121   -3.1326   -0.4313 H   0  0  0  0  0  0  0  0  0  0  0  0
   -9.9536    2.5685    0.3875 H   0  0  0  0  0  0  0  0  0  0  0  0
  -11.0408    2.2118   -0.9836 H   0  0  0  0  0  0  0  0  0  0  0  0
  -10.3471   -1.8457    2.2597 H   0  0  0  0  0  0  0  0  0  0  0  0
  -11.6742   -0.6217   -1.1172 H   0  0  0  0  0  0  0  0  0  0  0  0
   -9.4893    3.8033   -1.4503 H   0  0  0  0  0  0  0  0  0  0  0  0
  1 22  1  0  0  0  0
  1 77  1  0  0  0  0
  2 29  1  0  0  0  0
  2 36  1  0  0  0  0
  3 27  2  0  0  0  0
  4 33  1  0  0  0  0
  4 39  1  0  0  0  0
  5 36  2  0  0  0  0
  6 40  1  0  0  0  0
  6 41  1  0  0  0  0
  7 41  1  0  0  0  0
  7 44  1  0  0  0  0
  8 42  1  0  0  0  0
  8 93  1  0  0  0  0
  9 43  1  0  0  0  0
  9 96  1  0  0  0  0
 10 45  1  0  0  0  0
 10 97  1  0  0  0  0
 11 46  1  0  0  0  0
 11 98  1  0  0  0  0
 12 13  1  0  0  0  0
 12 15  1  0  0  0  0
 12 17  1  0  0  0  0
 12 24  1  0  0  0  0
 13 14  1  0  0  0  0
 13 18  1  0  0  0  0
 13 47  1  0  0  0  0
 14 16  1  0  0  0  0
 14 22  1  0  0  0  0
 14 48  1  0  0  0  0
 15 20  1  0  0  0  0
 15 23  1  0  0  0  0
 15 49  1  0  0  0  0
 16 19  1  0  0  0  0
 16 21  1  0  0  0  0
 16 50  1  0  0  0  0
 17 19  1  0  0  0  0
 17 51  1  0  0  0  0
 17 52  1  0  0  0  0
 18 20  1  0  0  0  0
 18 53  1  0  0  0  0
 18 54  1  0  0  0  0
 19 55  1  0  0  0  0
 19 56  1  0  0  0  0
 20 57  1  0  0  0  0
 20 58  1  0  0  0  0
 21 25  1  0  0  0  0
 21 27  1  0  0  0  0
 21 28  1  0  0  0  0
 22 26  1  0  0  0  0
 22 59  1  0  0  0  0
 23 29  1  0  0  0  0
 23 31  1  0  0  0  0
 23 60  1  0  0  0  0
 24 61  1  0  0  0  0
 24 62  1  0  0  0  0
 24 63  1  0  0  0  0
 25 26  2  0  0  0  0
 25 30  1  0  0  0  0
 26 64  1  0  0  0  0
 27 32  1  0  0  0  0
 28 65  1  0  0  0  0
 28 66  1  0  0  0  0
 28 67  1  0  0  0  0
 29 34  1  0  0  0  0
 29 68  1  0  0  0  0
 30 33  1  0  0  0  0
 30 69  1  0  0  0  0
 30 70  1  0  0  0  0
 31 71  1  0  0  0  0
 31 72  1  0  0  0  0
 31 73  1  0  0  0  0
 32 33  1  0  0  0  0
 32 74  1  0  0  0  0
 32 75  1  0  0  0  0
 33 76  1  0  0  0  0
 34 35  1  0  0  0  0
 34 78  1  0  0  0  0
 34 79  1  0  0  0  0
 35 37  2  0  0  0  0
 35 38  1  0  0  0  0
 36 37  1  0  0  0  0
 37 40  1  0  0  0  0
 38 80  1  0  0  0  0
 38 81  1  0  0  0  0
 38 82  1  0  0  0  0
 39 83  1  0  0  0  0
 39 84  1  0  0  0  0
 39 85  1  0  0  0  0
 40 86  1  0  0  0  0
 40 87  1  0  0  0  0
 41 42  1  0  0  0  0
 41 88  1  0  0  0  0
 42 43  1  0  0  0  0
 42 89  1  0  0  0  0
 43 45  1  0  0  0  0
 43 90  1  0  0  0  0
 44 45  1  0  0  0  0
 44 46  1  0  0  0  0
 44 91  1  0  0  0  0
 45 92  1  0  0  0  0
 46 94  1  0  0  0  0
 46 95  1  0  0  0  0
M  END
> <PUBCHEM_COMPOUND_CID>
102139048

> <PUBCHEM_CONFORMER_RMSD>
1.2

> <PUBCHEM_CONFORMER_DIVERSEORDER>
1
46
53
55
34
43
31
5
41
51
59
56
8
38
57
24
58
35
64
39
50
28
62
30
54
19
23
33
44
9
32
36
29
13
7
27
47
63
45
61
3
10
52
40
26
4
11
15
66
25
65
12
49
17
16
42
18
22
6
20
60
21
37
2
48
14

> <PUBCHEM_MMFF94_PARTIAL_CHARGES>
39
1 -0.68
10 -0.68
11 -0.68
2 -0.43
21 0.2
22 0.42
25 -0.28
26 -0.29
27 0.45
29 0.28
3 -0.57
30 0.14
32 0.06
33 0.28
34 0.14
35 -0.28
36 0.71
37 -0.12
38 0.14
39 0.28
4 -0.56
40 0.42
41 0.56
42 0.28
43 0.28
44 0.28
45 0.28
46 0.28
5 -0.57
6 -0.56
64 0.15
7 -0.56
77 0.4
8 -0.68
9 -0.68
93 0.4
96 0.4
97 0.4
98 0.4

> <PUBCHEM_EFFECTIVE_ROTOR_COUNT>
10.6

> <PUBCHEM_PHARMACOPHORE_FEATURES>
22
1 1 acceptor
1 1 donor
1 10 acceptor
1 10 donor
1 11 acceptor
1 11 donor
1 3 acceptor
1 31 hydrophobe
1 4 acceptor
1 5 acceptor
1 6 acceptor
1 7 acceptor
1 8 acceptor
1 8 donor
1 9 acceptor
1 9 donor
5 12 13 15 18 20 rings
6 12 13 14 16 17 19 rings
6 14 16 21 22 25 26 rings
6 2 29 34 35 36 37 rings
6 21 25 27 30 32 33 rings
6 7 41 42 43 44 45 rings

> <PUBCHEM_HEAVY_ATOM_COUNT>
46

> <PUBCHEM_ATOM_DEF_STEREO_COUNT>
15

> <PUBCHEM_ATOM_UDEF_STEREO_COUNT>
0

> <PUBCHEM_BOND_DEF_STEREO_COUNT>
0

> <PUBCHEM_BOND_UDEF_STEREO_COUNT>
0

> <PUBCHEM_ISOTOPIC_ATOM_COUNT>
0

> <PUBCHEM_COMPONENT_COUNT>
1

> <PUBCHEM_CACTVS_TAUTO_COUNT>
2

> <PUBCHEM_CONFORMER_ID>
061684A800000001

> <PUBCHEM_MMFF94_ENERGY>
151.8882

> <PUBCHEM_FEATURE_SELFOVERLAP>
111.818

> <PUBCHEM_SHAPE_FINGERPRINT>
10674148 151 18335137622584591971
11534866 41 18343023273252066182
12089408 11 17458062668811582997
12522641 33 15936405637456935243
12664476 115 16343701028316373706
12728208 25 15195291919493736591
12741549 16 17704071797977480960
12758862 56 18272646896352248867
13811026 1 17561365071537893296
13947934 56 18336827494008625734
13947947 74 17988647376419677079
14251764 46 18259704501488613965
14294032 229 18042404630791786581
15065858 18 18410851079509628320
15247644 1 18260830385203077410
15461852 350 18040715866445161365
15510794 2 18201721769489941535
15840311 113 17894914079325281852
16067689 302 16558758876318627110
16728433 110 16917347038973549121
20105231 36 18412828019087284515
20501277 279 16702302356354157502
21792934 111 17060616716336325576
21792961 116 18272931623236666353
232437 2 17967249805910650315
24771293 8 11530751588901601559
3092352 35 17022906766397207675
335507 130 17561362885958851764
4874694 18 17775284954484906134
6081469 158 18060139838465800320
6201320 215 17386560255517036629
9663363 56 17489869327793792769
9937071 3 17917716798774483974

> <PUBCHEM_SHAPE_MULTIPOLES>
882.1
46.36
1.98
1.72
42.31
0.03
0.05
-10.6
-3.86
4.03
0.03
-2.49
-0.17
2.88

> <PUBCHEM_SHAPE_SELFOVERLAP>
1878.714

> <PUBCHEM_SHAPE_VOLUME>
485.8

> <PUBCHEM_COORDINATE_TYPE>
2
5
10

$$$$
