102139045
  -OEChem-11222012122D

118124  0     1  0  0  0  0  0999 V2000
    9.3074    3.2956    0.0000 O   0  0  0  0  0  0  0  0  0  0  0  0
   13.6616    1.4694    0.0000 O   0  0  0  0  0  0  0  0  0  0  0  0
    7.7331   -1.1627    0.0000 O   0  0  0  0  0  0  0  0  0  0  0  0
   14.4479    4.9976    0.0000 O   0  0  0  0  0  0  0  0  0  0  0  0
   16.0963    5.5294    0.0000 O   0  0  0  0  0  0  0  0  0  0  0  0
    6.0010   -1.1627    0.0000 O   0  0  0  0  0  0  0  0  0  0  0  0
   15.0619    3.0942    0.0000 O   0  0  0  0  0  0  0  0  0  0  0  0
    6.0010   -4.1627    0.0000 O   0  0  0  0  0  0  0  0  0  0  0  0
   17.0173    2.6742    0.0000 O   0  0  0  0  0  0  0  0  0  0  0  0
   18.3587    4.1577    0.0000 O   0  0  0  0  0  0  0  0  0  0  0  0
   17.4377    7.0128    0.0000 O   0  0  0  0  0  0  0  0  0  0  0  0
    4.2690   -4.1627    0.0000 O   0  0  0  0  0  0  0  0  0  0  0  0
    6.0010   -6.1627    0.0000 O   0  0  0  0  0  0  0  0  0  0  0  0
    4.2690   -7.1627    0.0000 O   0  0  0  0  0  0  0  0  0  0  0  0
    2.5369   -6.1627    0.0000 O   0  0  0  0  0  0  0  0  0  0  0  0
    2.5369   -3.1627    0.0000 O   0  0  0  0  0  0  0  0  0  0  0  0
   10.2699    0.4209    0.0000 C   0  0  1  0  0  0  0  0  0  0  0  0
    9.9592    1.3714    0.0000 C   0  0  2  0  0  0  0  0  0  0  0  0
   10.6271    2.1157    0.0000 C   0  0  1  0  0  0  0  0  0  0  0  0
   11.6056    1.9095    0.0000 C   0  0  1  0  0  0  0  0  0  0  0  0
    9.4651   -0.1627    0.0000 C   0  0  2  0  0  0  0  0  0  0  0  0
   11.2484    0.2147    0.0000 C   0  0  0  0  0  0  0  0  0  0  0  0
   12.3131    2.6740    0.0000 C   0  0  2  0  0  0  0  0  0  0  0  0
    8.9651    1.3671    0.0000 C   0  0  0  0  0  0  0  0  0  0  0  0
   11.9162    0.9590    0.0000 C   0  0  0  0  0  0  0  0  0  0  0  0
    8.6604    0.4209    0.0000 C   0  0  0  0  0  0  0  0  0  0  0  0
   10.2882    3.1007    0.0000 C   0  0  2  0  0  0  0  0  0  0  0  0
    9.4651   -1.1627    0.0000 C   0  0  1  0  0  0  0  0  0  0  0  0
   10.5805   -0.5296    0.0000 C   0  0  0  0  0  0  0  0  0  0  0  0
   11.9971    3.6666    0.0000 C   0  0  0  0  0  0  0  0  0  0  0  0
   13.3693    2.4258    0.0000 C   0  0  2  0  0  0  0  0  0  0  0  0
   10.9779    3.8814    0.0000 C   0  0  0  0  0  0  0  0  0  0  0  0
   12.6164    1.7211    0.0000 C   0  0  0  0  0  0  0  0  0  0  0  0
   12.7155    4.4797    0.0000 C   0  0  0  0  0  0  0  0  0  0  0  0
   14.1063    3.2220    0.0000 C   0  0  0  0  0  0  0  0  0  0  0  0
    8.5991   -1.6627    0.0000 C   0  0  1  0  0  0  0  0  0  0  0  0
   13.7772    4.2559    0.0000 C   0  0  2  0  0  0  0  0  0  0  0  0
   10.3312   -1.6627    0.0000 C   0  0  0  0  0  0  0  0  0  0  0  0
    8.5991   -2.6627    0.0000 C   0  0  0  0  0  0  0  0  0  0  0  0
    7.7331   -3.1627    0.0000 C   0  0  0  0  0  0  0  0  0  0  0  0
   15.4256    4.7877    0.0000 C   0  0  2  0  0  0  0  0  0  0  0  0
    6.8671   -1.6627    0.0000 C   0  0  0  0  0  0  0  0  0  0  0  0
    6.8671   -2.6627    0.0000 C   0  0  0  0  0  0  0  0  0  0  0  0
    7.7331   -4.1627    0.0000 C   0  0  0  0  0  0  0  0  0  0  0  0
   15.7326    3.8360    0.0000 C   0  0  1  0  0  0  0  0  0  0  0  0
    6.0010   -3.1627    0.0000 C   0  0  0  0  0  0  0  0  0  0  0  0
   16.7103    3.6260    0.0000 C   0  0  2  0  0  0  0  0  0  0  0  0
   17.0740    5.3194    0.0000 C   0  0  1  0  0  0  0  0  0  0  0  0
   17.3810    4.3677    0.0000 C   0  0  1  0  0  0  0  0  0  0  0  0
   17.7447    6.0611    0.0000 C   0  0  0  0  0  0  0  0  0  0  0  0
    5.1350   -4.6627    0.0000 C   0  0  2  0  0  0  0  0  0  0  0  0
    5.1350   -5.6627    0.0000 C   0  0  1  0  0  0  0  0  0  0  0  0
    4.2690   -6.1627    0.0000 C   0  0  2  0  0  0  0  0  0  0  0  0
    3.4030   -4.6627    0.0000 C   0  0  1  0  0  0  0  0  0  0  0  0
    3.4030   -5.6627    0.0000 C   0  0  1  0  0  0  0  0  0  0  0  0
    2.5369   -4.1627    0.0000 C   0  0  0  0  0  0  0  0  0  0  0  0
    9.6111    2.1469    0.0000 H   0  0  0  0  0  0  0  0  0  0  0  0
   11.1898    2.7527    0.0000 H   0  0  0  0  0  0  0  0  0  0  0  0
   12.4359    1.7278    0.0000 H   0  0  0  0  0  0  0  0  0  0  0  0
    8.7080   -0.5489    0.0000 H   0  0  0  0  0  0  0  0  0  0  0  0
   11.0171   -0.3606    0.0000 H   0  0  0  0  0  0  0  0  0  0  0  0
   11.7747   -0.1129    0.0000 H   0  0  0  0  0  0  0  0  0  0  0  0
    9.0276    1.9840    0.0000 H   0  0  0  0  0  0  0  0  0  0  0  0
    8.3583    1.4941    0.0000 H   0  0  0  0  0  0  0  0  0  0  0  0
   12.2988    0.4711    0.0000 H   0  0  0  0  0  0  0  0  0  0  0  0
   12.4631    1.2510    0.0000 H   0  0  0  0  0  0  0  0  0  0  0  0
    8.0935    0.6720    0.0000 H   0  0  0  0  0  0  0  0  0  0  0  0
    8.3512   -0.1165    0.0000 H   0  0  0  0  0  0  0  0  0  0  0  0
   10.0900    3.6882    0.0000 H   0  0  0  0  0  0  0  0  0  0  0  0
   10.0021   -0.8527    0.0000 H   0  0  0  0  0  0  0  0  0  0  0  0
    9.9912   -0.7222    0.0000 H   0  0  0  0  0  0  0  0  0  0  0  0
   10.7731   -1.1189    0.0000 H   0  0  0  0  0  0  0  0  0  0  0  0
   11.1699   -0.3370    0.0000 H   0  0  0  0  0  0  0  0  0  0  0  0
   12.9455    1.9732    0.0000 H   0  0  0  0  0  0  0  0  0  0  0  0
   10.7830    4.4699    0.0000 H   0  0  0  0  0  0  0  0  0  0  0  0
   12.0256    1.5330    0.0000 H   0  0  0  0  0  0  0  0  0  0  0  0
   12.8045    1.1303    0.0000 H   0  0  0  0  0  0  0  0  0  0  0  0
   13.2072    1.9092    0.0000 H   0  0  0  0  0  0  0  0  0  0  0  0
   12.9453    5.0555    0.0000 H   0  0  0  0  0  0  0  0  0  0  0  0
   12.1874    4.8046    0.0000 H   0  0  0  0  0  0  0  0  0  0  0  0
   14.4825    2.7293    0.0000 H   0  0  0  0  0  0  0  0  0  0  0  0
   14.6562    3.5084    0.0000 H   0  0  0  0  0  0  0  0  0  0  0  0
    8.5991   -0.8127    0.0000 H   0  0  0  0  0  0  0  0  0  0  0  0
   13.5857    4.8456    0.0000 H   0  0  0  0  0  0  0  0  0  0  0  0
   10.0212   -2.1996    0.0000 H   0  0  0  0  0  0  0  0  0  0  0  0
   10.8681   -1.9727    0.0000 H   0  0  0  0  0  0  0  0  0  0  0  0
   10.6412   -1.1258    0.0000 H   0  0  0  0  0  0  0  0  0  0  0  0
    9.1080    3.8827    0.0000 H   0  0  0  0  0  0  0  0  0  0  0  0
    8.8112   -3.2453    0.0000 H   0  0  0  0  0  0  0  0  0  0  0  0
    9.2097   -2.5550    0.0000 H   0  0  0  0  0  0  0  0  0  0  0  0
   14.2657    1.3299    0.0000 H   0  0  0  0  0  0  0  0  0  0  0  0
   15.2352    5.3777    0.0000 H   0  0  0  0  0  0  0  0  0  0  0  0
   15.9229    3.2459    0.0000 H   0  0  0  0  0  0  0  0  0  0  0  0
    7.1131   -4.1627    0.0000 H   0  0  0  0  0  0  0  0  0  0  0  0
    7.7331   -4.7827    0.0000 H   0  0  0  0  0  0  0  0  0  0  0  0
    8.3531   -4.1627    0.0000 H   0  0  0  0  0  0  0  0  0  0  0  0
    5.7890   -2.5801    0.0000 H   0  0  0  0  0  0  0  0  0  0  0  0
    5.3905   -3.2704    0.0000 H   0  0  0  0  0  0  0  0  0  0  0  0
   17.3164    3.4958    0.0000 H   0  0  0  0  0  0  0  0  0  0  0  0
   16.8836    5.9094    0.0000 H   0  0  0  0  0  0  0  0  0  0  0  0
   17.7968    4.8275    0.0000 H   0  0  0  0  0  0  0  0  0  0  0  0
   15.2522    2.5042    0.0000 H   0  0  0  0  0  0  0  0  0  0  0  0
   18.1254    5.5717    0.0000 H   0  0  0  0  0  0  0  0  0  0  0  0
   18.2927    6.3510    0.0000 H   0  0  0  0  0  0  0  0  0  0  0  0
   17.6234    2.5441    0.0000 H   0  0  0  0  0  0  0  0  0  0  0  0
   18.7745    4.6176    0.0000 H   0  0  0  0  0  0  0  0  0  0  0  0
    5.1350   -4.0427    0.0000 H   0  0  0  0  0  0  0  0  0  0  0  0
    5.1350   -6.2827    0.0000 H   0  0  0  0  0  0  0  0  0  0  0  0
   17.8535    7.4727    0.0000 H   0  0  0  0  0  0  0  0  0  0  0  0
    3.7320   -6.4727    0.0000 H   0  0  0  0  0  0  0  0  0  0  0  0
    3.4030   -4.0427    0.0000 H   0  0  0  0  0  0  0  0  0  0  0  0
    3.4030   -6.2827    0.0000 H   0  0  0  0  0  0  0  0  0  0  0  0
    6.5380   -5.8527    0.0000 H   0  0  0  0  0  0  0  0  0  0  0  0
    1.9264   -4.0550    0.0000 H   0  0  0  0  0  0  0  0  0  0  0  0
    2.3249   -4.7453    0.0000 H   0  0  0  0  0  0  0  0  0  0  0  0
    3.7320   -7.4727    0.0000 H   0  0  0  0  0  0  0  0  0  0  0  0
    2.0000   -5.8527    0.0000 H   0  0  0  0  0  0  0  0  0  0  0  0
    2.0000   -2.8527    0.0000 H   0  0  0  0  0  0  0  0  0  0  0  0
 27  1  1  1  0  0  0
  1 88  1  0  0  0  0
 31  2  1  6  0  0  0
  2 91  1  0  0  0  0
  3 36  1  0  0  0  0
  3 42  1  0  0  0  0
 37  4  1  1  0  0  0
 41  4  1  6  0  0  0
  5 41  1  0  0  0  0
  5 48  1  0  0  0  0
  6 42  2  0  0  0  0
 45  7  1  1  0  0  0
  7102  1  0  0  0  0
  8 46  1  0  0  0  0
 51  8  1  1  0  0  0
 47  9  1  6  0  0  0
  9105  1  0  0  0  0
 49 10  1  1  0  0  0
 10106  1  0  0  0  0
 11 50  1  0  0  0  0
 11109  1  0  0  0  0
 12 51  1  0  0  0  0
 12 54  1  0  0  0  0
 52 13  1  6  0  0  0
 13113  1  0  0  0  0
 53 14  1  1  0  0  0
 14116  1  0  0  0  0
 55 15  1  6  0  0  0
 15117  1  0  0  0  0
 16 56  1  0  0  0  0
 16118  1  0  0  0  0
 17 18  1  0  0  0  0
 17 21  1  0  0  0  0
 17 22  1  0  0  0  0
 17 29  1  1  0  0  0
 18 19  1  0  0  0  0
 18 24  1  0  0  0  0
 18 57  1  6  0  0  0
 19 20  1  0  0  0  0
 19 27  1  0  0  0  0
 19 58  1  1  0  0  0
 20 23  1  0  0  0  0
 20 25  1  0  0  0  0
 20 59  1  6  0  0  0
 21 26  1  0  0  0  0
 21 28  1  0  0  0  0
 21 60  1  6  0  0  0
 22 25  1  0  0  0  0
 22 61  1  0  0  0  0
 22 62  1  0  0  0  0
 23 30  1  0  0  0  0
 23 31  1  0  0  0  0
 23 33  1  1  0  0  0
 24 26  1  0  0  0  0
 24 63  1  0  0  0  0
 24 64  1  0  0  0  0
 25 65  1  0  0  0  0
 25 66  1  0  0  0  0
 26 67  1  0  0  0  0
 26 68  1  0  0  0  0
 27 32  1  0  0  0  0
 27 69  1  0  0  0  0
 28 36  1  0  0  0  0
 28 38  1  6  0  0  0
 28 70  1  0  0  0  0
 29 71  1  0  0  0  0
 29 72  1  0  0  0  0
 29 73  1  0  0  0  0
 30 32  2  0  0  0  0
 30 34  1  0  0  0  0
 31 35  1  0  0  0  0
 31 74  1  0  0  0  0
 32 75  1  0  0  0  0
 33 76  1  0  0  0  0
 33 77  1  0  0  0  0
 33 78  1  0  0  0  0
 34 37  1  0  0  0  0
 34 79  1  0  0  0  0
 34 80  1  0  0  0  0
 35 37  1  0  0  0  0
 35 81  1  0  0  0  0
 35 82  1  0  0  0  0
 36 39  1  0  0  0  0
 36 83  1  6  0  0  0
 37 84  1  0  0  0  0
 38 85  1  0  0  0  0
 38 86  1  0  0  0  0
 38 87  1  0  0  0  0
 39 40  1  0  0  0  0
 39 89  1  0  0  0  0
 39 90  1  0  0  0  0
 40 43  2  0  0  0  0
 40 44  1  0  0  0  0
 41 45  1  0  0  0  0
 41 92  1  0  0  0  0
 42 43  1  0  0  0  0
 43 46  1  0  0  0  0
 44 94  1  0  0  0  0
 44 95  1  0  0  0  0
 44 96  1  0  0  0  0
 45 47  1  0  0  0  0
 45 93  1  0  0  0  0
 46 97  1  0  0  0  0
 46 98  1  0  0  0  0
 47 49  1  0  0  0  0
 47 99  1  0  0  0  0
 48 49  1  0  0  0  0
 48 50  1  6  0  0  0
 48100  1  0  0  0  0
 49101  1  0  0  0  0
 50103  1  0  0  0  0
 50104  1  0  0  0  0
 51 52  1  0  0  0  0
 51107  1  0  0  0  0
 52 53  1  0  0  0  0
 52108  1  0  0  0  0
 53 55  1  0  0  0  0
 53110  1  0  0  0  0
 54 55  1  0  0  0  0
 54 56  1  1  0  0  0
 54111  1  0  0  0  0
 55112  1  0  0  0  0
 56114  1  0  0  0  0
 56115  1  0  0  0  0
M  END
> <PUBCHEM_COMPOUND_CID>
102139045

> <PUBCHEM_COMPOUND_CANONICALIZED>
1

> <PUBCHEM_CACTVS_COMPLEXITY>
1510

> <PUBCHEM_CACTVS_HBOND_ACCEPTOR>
16

> <PUBCHEM_CACTVS_HBOND_DONOR>
10

> <PUBCHEM_CACTVS_ROTATABLE_BOND>
9

> <PUBCHEM_CACTVS_SUBSKEYS>
AAADcfB8PgAAAAAAAAAAAAAAAAAAAYAAAAA0aIECAAAAAGCAAAAAGgAACAAADxSwgAMCCAAABgCIAiDSCAAAAAAgAAAACAEAAEgRFAYAIQAiUAAF4AAPMQPA4PwPgAAAAAAAAADAAAQQADAAAQAACAAAAA==

> <PUBCHEM_IUPAC_OPENEYE_NAME>
(2R)-2-[(1S)-1-[(1S,3R,7R,8S,9S,10R,13R,14S,17R)-1,7-dihydroxy-10,13-dimethyl-3-[(2R,3R,4S,5S,6R)-3,4,5-trihydroxy-6-(hydroxymethyl)tetrahydropyran-2-yl]oxy-2,3,4,7,8,9,11,12,14,15,16,17-dodecahydro-1H-cyclopenta[a]phenanthren-17-yl]ethyl]-4-methyl-5-[[(2R,3R,4S,5S,6R)-3,4,5-trihydroxy-6-(hydroxymethyl)tetrahydropyran-2-yl]oxymethyl]-2,3-dihydropyran-6-one

> <PUBCHEM_IUPAC_CAS_NAME>
(2R)-2-[(1S)-1-[(1S,3R,7R,8S,9S,10R,13R,14S,17R)-1,7-dihydroxy-10,13-dimethyl-3-[[(2R,3R,4S,5S,6R)-3,4,5-trihydroxy-6-(hydroxymethyl)-2-oxanyl]oxy]-2,3,4,7,8,9,11,12,14,15,16,17-dodecahydro-1H-cyclopenta[a]phenanthren-17-yl]ethyl]-4-methyl-5-[[(2R,3R,4S,5S,6R)-3,4,5-trihydroxy-6-(hydroxymethyl)-2-oxanyl]oxymethyl]-2,3-dihydropyran-6-one

> <PUBCHEM_IUPAC_NAME_MARKUP>
(2<I>R</I>)-2-[(1<I>S</I>)-1-[(1<I>S</I>,3<I>R</I>,7<I>R</I>,8<I>S</I>,9<I>S</I>,10<I>R</I>,13<I>R</I>,14<I>S</I>,17<I>R</I>)-1,7-dihydroxy-10,13-dimethyl-3-[(2<I>R</I>,3<I>R</I>,4<I>S</I>,5<I>S</I>,6<I>R</I>)-3,4,5-trihydroxy-6-(hydroxymethyl)oxan-2-yl]oxy-2,3,4,7,8,9,11,12,14,15,16,17-dodecahydro-1<I>H</I>-cyclopenta[a]phenanthren-17-yl]ethyl]-4-methyl-5-[[(2<I>R</I>,3<I>R</I>,4<I>S</I>,5<I>S</I>,6<I>R</I>)-3,4,5-trihydroxy-6-(hydroxymethyl)oxan-2-yl]oxymethyl]-2,3-dihydropyran-6-one

> <PUBCHEM_IUPAC_NAME>
(2R)-2-[(1S)-1-[(1S,3R,7R,8S,9S,10R,13R,14S,17R)-1,7-dihydroxy-10,13-dimethyl-3-[(2R,3R,4S,5S,6R)-3,4,5-trihydroxy-6-(hydroxymethyl)oxan-2-yl]oxy-2,3,4,7,8,9,11,12,14,15,16,17-dodecahydro-1H-cyclopenta[a]phenanthren-17-yl]ethyl]-4-methyl-5-[[(2R,3R,4S,5S,6R)-3,4,5-trihydroxy-6-(hydroxymethyl)oxan-2-yl]oxymethyl]-2,3-dihydropyran-6-one

> <PUBCHEM_IUPAC_SYSTEMATIC_NAME>
(2R)-2-[(1S)-1-[(1S,3R,7R,8S,9S,10R,13R,14S,17R)-3-[(2R,3R,4S,5S,6R)-6-(hydroxymethyl)-3,4,5-tris(oxidanyl)oxan-2-yl]oxy-10,13-dimethyl-1,7-bis(oxidanyl)-2,3,4,7,8,9,11,12,14,15,16,17-dodecahydro-1H-cyclopenta[a]phenanthren-17-yl]ethyl]-5-[[(2R,3R,4S,5S,6R)-6-(hydroxymethyl)-3,4,5-tris(oxidanyl)oxan-2-yl]oxymethyl]-4-methyl-2,3-dihydropyran-6-one

> <PUBCHEM_IUPAC_TRADITIONAL_NAME>
(2R)-2-[(1S)-1-[(1S,3R,7R,8S,9S,10R,13R,14S,17R)-1,7-dihydroxy-10,13-dimethyl-3-[(2R,3R,4S,5S,6R)-3,4,5-trihydroxy-6-methylol-tetrahydropyran-2-yl]oxy-2,3,4,7,8,9,11,12,14,15,16,17-dodecahydro-1H-cyclopenta[a]phenanthren-17-yl]ethyl]-4-methyl-5-[[(2R,3R,4S,5S,6R)-3,4,5-trihydroxy-6-methylol-tetrahydropyran-2-yl]oxymethyl]-2,3-dihydropyran-6-one

> <PUBCHEM_IUPAC_INCHI>
InChI=1S/C40H62O16/c1-16-9-25(54-36(51)20(16)15-52-37-34(49)32(47)30(45)26(13-41)55-37)17(2)21-5-6-22-29-23(7-8-39(21,22)3)40(4)18(11-24(29)43)10-19(12-28(40)44)53-38-35(50)33(48)31(46)27(14-42)56-38/h11,17,19,21-35,37-38,41-50H,5-10,12-15H2,1-4H3/t17-,19+,21+,22-,23-,24-,25+,26+,27+,28-,29-,30+,31+,32-,33-,34+,35+,37+,38+,39+,40-/m0/s1

> <PUBCHEM_IUPAC_INCHIKEY>
KKRDDRNAAOATTB-HHNVRJINSA-N

> <PUBCHEM_XLOGP3_AA>
-0.1

> <PUBCHEM_EXACT_MASS>
798.403786

> <PUBCHEM_MOLECULAR_FORMULA>
C40H62O16

> <PUBCHEM_MOLECULAR_WEIGHT>
798.9

> <PUBCHEM_OPENEYE_CAN_SMILES>
CC1=C(C(=O)OC(C1)C(C)C2CCC3C2(CCC4C3C(C=C5C4(C(CC(C5)OC6C(C(C(C(O6)CO)O)O)O)O)C)O)C)COC7C(C(C(C(O7)CO)O)O)O

> <PUBCHEM_OPENEYE_ISO_SMILES>
CC1=C(C(=O)O[C@H](C1)[C@@H](C)[C@H]2CC[C@@H]3[C@@]2(CC[C@H]4[C@H]3[C@H](C=C5[C@@]4([C@H](C[C@@H](C5)O[C@H]6[C@@H]([C@H]([C@@H]([C@H](O6)CO)O)O)O)O)C)O)C)CO[C@H]7[C@@H]([C@H]([C@@H]([C@H](O7)CO)O)O)O

> <PUBCHEM_CACTVS_TPSA>
266

> <PUBCHEM_MONOISOTOPIC_WEIGHT>
798.403786

> <PUBCHEM_TOTAL_CHARGE>
0

> <PUBCHEM_HEAVY_ATOM_COUNT>
56

> <PUBCHEM_ATOM_DEF_STEREO_COUNT>
21

> <PUBCHEM_ATOM_UDEF_STEREO_COUNT>
0

> <PUBCHEM_BOND_DEF_STEREO_COUNT>
0

> <PUBCHEM_BOND_UDEF_STEREO_COUNT>
0

> <PUBCHEM_ISOTOPIC_ATOM_COUNT>
0

> <PUBCHEM_COMPONENT_COUNT>
1

> <PUBCHEM_CACTVS_TAUTO_COUNT>
-1

> <PUBCHEM_COORDINATE_TYPE>
1
5
255

> <PUBCHEM_BONDANNOTATIONS>
27  1  5
49  10  5
52  13  6
53  14  5
55  15  6
17  29  5
18  57  6
19  58  5
31  2  6
20  59  6
21  60  6
23  33  5
28  38  6
36  83  6
37  4  5
41  4  6
48  50  6
54  56  5
45  7  5
51  8  5
47  9  6

$$$$
