101341
  -OEChem-08282001503D

 83 87  0     1  0  0  0  0  0999 V2000
    6.8065    1.2433    1.4454 O   0  0  0  0  0  0  0  0  0  0  0  0
   -0.7386   -0.9831   -0.2961 C   0  0  1  0  0  0  0  0  0  0  0  0
   -1.5260    0.3219    0.1457 C   0  0  2  0  0  0  0  0  0  0  0  0
    0.8213   -0.7812   -0.0784 C   0  0  2  0  0  0  0  0  0  0  0  0
    1.4624    0.4971   -0.7448 C   0  0  2  0  0  0  0  0  0  0  0  0
   -3.0748    0.1368   -0.1851 C   0  0  1  0  0  0  0  0  0  0  0  0
    2.9016    0.6635   -0.0892 C   0  0  1  0  0  0  0  0  0  0  0  0
   -3.6953   -1.2157    0.3602 C   0  0  1  0  0  0  0  0  0  0  0  0
   -0.9292    1.5390   -0.6226 C   0  0  0  0  0  0  0  0  0  0  0  0
    3.8550   -0.5940   -0.1807 C   0  0  2  0  0  0  0  0  0  0  0  0
    0.5805    1.7318   -0.3946 C   0  0  0  0  0  0  0  0  0  0  0  0
   -1.2480   -2.1908    0.5493 C   0  0  0  0  0  0  0  0  0  0  0  0
    1.6936   -2.0287   -0.3338 C   0  0  0  0  0  0  0  0  0  0  0  0
   -2.6767   -2.1142    1.1065 C   0  0  0  0  0  0  0  0  0  0  0  0
    3.0840   -1.8577    0.2878 C   0  0  0  0  0  0  0  0  0  0  0  0
   -3.9077    1.3851    0.2359 C   0  0  0  0  0  0  0  0  0  0  0  0
   -0.9796   -1.3478   -1.7890 C   0  0  0  0  0  0  0  0  0  0  0  0
   -1.3549    0.6651    1.6645 C   0  0  0  0  0  0  0  0  0  0  0  0
    5.0719   -0.3276    0.7952 C   0  0  2  0  0  0  0  0  0  0  0  0
    3.6470    1.9611   -0.4721 C   0  0  0  0  0  0  0  0  0  0  0  0
   -4.8640   -0.9057    1.3380 C   0  0  0  0  0  0  0  0  0  0  0  0
    1.5623    0.4443   -2.2899 C   0  0  0  0  0  0  0  0  0  0  0  0
   -5.4395    1.2582    0.0772 C   0  0  0  0  0  0  0  0  0  0  0  0
   -5.9655   -0.0526    0.7048 C   0  0  0  0  0  0  0  0  0  0  0  0
   -4.2930   -2.0825   -0.7852 C   0  0  0  0  0  0  0  0  0  0  0  0
    5.8059    0.9901    0.4582 C   0  0  1  0  0  0  0  0  0  0  0  0
    4.3916   -0.8632   -1.6081 C   0  0  0  0  0  0  0  0  0  0  0  0
    4.8583    2.1849    0.4261 C   0  0  0  0  0  0  0  0  0  0  0  0
    6.0855   -1.4823    0.8900 C   0  0  0  0  0  0  0  0  0  0  0  0
   -6.0991    2.4578    0.7937 C   0  0  0  0  0  0  0  0  0  0  0  0
   -5.8355    1.3472   -1.4088 C   0  0  0  0  0  0  0  0  0  0  0  0
    0.9240   -0.6274    1.0037 H   0  0  0  0  0  0  0  0  0  0  0  0
   -3.1507    0.1097   -1.2801 H   0  0  0  0  0  0  0  0  0  0  0  0
    2.6899    0.7790    0.9875 H   0  0  0  0  0  0  0  0  0  0  0  0
   -1.4169    2.4678   -0.3023 H   0  0  0  0  0  0  0  0  0  0  0  0
   -1.1458    1.4636   -1.6927 H   0  0  0  0  0  0  0  0  0  0  0  0
    0.8946    2.5992   -0.9896 H   0  0  0  0  0  0  0  0  0  0  0  0
    0.7459    2.0195    0.6509 H   0  0  0  0  0  0  0  0  0  0  0  0
   -0.5907   -2.3384    1.4167 H   0  0  0  0  0  0  0  0  0  0  0  0
   -1.1564   -3.1164   -0.0349 H   0  0  0  0  0  0  0  0  0  0  0  0
    1.7843   -2.2565   -1.3986 H   0  0  0  0  0  0  0  0  0  0  0  0
    1.2424   -2.9162    0.1224 H   0  0  0  0  0  0  0  0  0  0  0  0
   -3.0688   -3.1392    1.1780 H   0  0  0  0  0  0  0  0  0  0  0  0
   -2.6108   -1.8071    2.1568 H   0  0  0  0  0  0  0  0  0  0  0  0
    2.9650   -1.8255    1.3793 H   0  0  0  0  0  0  0  0  0  0  0  0
    3.6632   -2.7638    0.0722 H   0  0  0  0  0  0  0  0  0  0  0  0
   -3.7020    1.6228    1.2857 H   0  0  0  0  0  0  0  0  0  0  0  0
   -3.5715    2.2573   -0.3376 H   0  0  0  0  0  0  0  0  0  0  0  0
   -0.7988   -0.5213   -2.4721 H   0  0  0  0  0  0  0  0  0  0  0  0
   -0.3505   -2.1853   -2.1067 H   0  0  0  0  0  0  0  0  0  0  0  0
   -2.0005   -1.6556   -1.9928 H   0  0  0  0  0  0  0  0  0  0  0  0
   -0.3420    0.5079    2.0381 H   0  0  0  0  0  0  0  0  0  0  0  0
   -1.5789    1.7219    1.8555 H   0  0  0  0  0  0  0  0  0  0  0  0
   -2.0205    0.1037    2.3181 H   0  0  0  0  0  0  0  0  0  0  0  0
    4.6646   -0.2198    1.8120 H   0  0  0  0  0  0  0  0  0  0  0  0
    2.9942    2.8326   -0.3630 H   0  0  0  0  0  0  0  0  0  0  0  0
    3.9720    1.9467   -1.5164 H   0  0  0  0  0  0  0  0  0  0  0  0
   -4.4827   -0.3924    2.2306 H   0  0  0  0  0  0  0  0  0  0  0  0
   -5.3104   -1.8396    1.7050 H   0  0  0  0  0  0  0  0  0  0  0  0
    0.6997    0.9027   -2.7820 H   0  0  0  0  0  0  0  0  0  0  0  0
    2.4210    1.0050   -2.6680 H   0  0  0  0  0  0  0  0  0  0  0  0
    1.6356   -0.5701   -2.6832 H   0  0  0  0  0  0  0  0  0  0  0  0
   -6.5009   -0.6495   -0.0437 H   0  0  0  0  0  0  0  0  0  0  0  0
   -6.7121    0.1603    1.4808 H   0  0  0  0  0  0  0  0  0  0  0  0
   -3.5389   -2.6864   -1.2939 H   0  0  0  0  0  0  0  0  0  0  0  0
   -5.0222   -2.8023   -0.3928 H   0  0  0  0  0  0  0  0  0  0  0  0
   -4.8050   -1.4843   -1.5413 H   0  0  0  0  0  0  0  0  0  0  0  0
    6.3225    0.8985   -0.5038 H   0  0  0  0  0  0  0  0  0  0  0  0
    3.6093   -1.1626   -2.3045 H   0  0  0  0  0  0  0  0  0  0  0  0
    4.8995    0.0026   -2.0395 H   0  0  0  0  0  0  0  0  0  0  0  0
    5.1074   -1.6919   -1.6141 H   0  0  0  0  0  0  0  0  0  0  0  0
    5.4029    3.0789    0.0976 H   0  0  0  0  0  0  0  0  0  0  0  0
    4.5214    2.4110    1.4467 H   0  0  0  0  0  0  0  0  0  0  0  0
    6.6553   -1.6025   -0.0362 H   0  0  0  0  0  0  0  0  0  0  0  0
    6.8086   -1.2962    1.6920 H   0  0  0  0  0  0  0  0  0  0  0  0
    5.6000   -2.4330    1.1254 H   0  0  0  0  0  0  0  0  0  0  0  0
   -5.7420    3.4098    0.3847 H   0  0  0  0  0  0  0  0  0  0  0  0
   -7.1894    2.4353    0.6826 H   0  0  0  0  0  0  0  0  0  0  0  0
   -5.8737    2.4515    1.8662 H   0  0  0  0  0  0  0  0  0  0  0  0
   -6.9222    1.2743   -1.5317 H   0  0  0  0  0  0  0  0  0  0  0  0
   -5.5182    2.3016   -1.8447 H   0  0  0  0  0  0  0  0  0  0  0  0
   -5.3820    0.5534   -2.0062 H   0  0  0  0  0  0  0  0  0  0  0  0
    7.2659    2.0627    1.1940 H   0  0  0  0  0  0  0  0  0  0  0  0
  1 26  1  0  0  0  0
  1 83  1  0  0  0  0
  2  3  1  0  0  0  0
  2  4  1  0  0  0  0
  2 12  1  0  0  0  0
  2 17  1  0  0  0  0
  3  6  1  0  0  0  0
  3  9  1  0  0  0  0
  3 18  1  0  0  0  0
  4  5  1  0  0  0  0
  4 13  1  0  0  0  0
  4 32  1  0  0  0  0
  5  7  1  0  0  0  0
  5 11  1  0  0  0  0
  5 22  1  0  0  0  0
  6  8  1  0  0  0  0
  6 16  1  0  0  0  0
  6 33  1  0  0  0  0
  7 10  1  0  0  0  0
  7 20  1  0  0  0  0
  7 34  1  0  0  0  0
  8 14  1  0  0  0  0
  8 21  1  0  0  0  0
  8 25  1  0  0  0  0
  9 11  1  0  0  0  0
  9 35  1  0  0  0  0
  9 36  1  0  0  0  0
 10 15  1  0  0  0  0
 10 19  1  0  0  0  0
 10 27  1  0  0  0  0
 11 37  1  0  0  0  0
 11 38  1  0  0  0  0
 12 14  1  0  0  0  0
 12 39  1  0  0  0  0
 12 40  1  0  0  0  0
 13 15  1  0  0  0  0
 13 41  1  0  0  0  0
 13 42  1  0  0  0  0
 14 43  1  0  0  0  0
 14 44  1  0  0  0  0
 15 45  1  0  0  0  0
 15 46  1  0  0  0  0
 16 23  1  0  0  0  0
 16 47  1  0  0  0  0
 16 48  1  0  0  0  0
 17 49  1  0  0  0  0
 17 50  1  0  0  0  0
 17 51  1  0  0  0  0
 18 52  1  0  0  0  0
 18 53  1  0  0  0  0
 18 54  1  0  0  0  0
 19 26  1  0  0  0  0
 19 29  1  0  0  0  0
 19 55  1  0  0  0  0
 20 28  1  0  0  0  0
 20 56  1  0  0  0  0
 20 57  1  0  0  0  0
 21 24  1  0  0  0  0
 21 58  1  0  0  0  0
 21 59  1  0  0  0  0
 22 60  1  0  0  0  0
 22 61  1  0  0  0  0
 22 62  1  0  0  0  0
 23 24  1  0  0  0  0
 23 30  1  0  0  0  0
 23 31  1  0  0  0  0
 24 63  1  0  0  0  0
 24 64  1  0  0  0  0
 25 65  1  0  0  0  0
 25 66  1  0  0  0  0
 25 67  1  0  0  0  0
 26 28  1  0  0  0  0
 26 68  1  0  0  0  0
 27 69  1  0  0  0  0
 27 70  1  0  0  0  0
 27 71  1  0  0  0  0
 28 72  1  0  0  0  0
 28 73  1  0  0  0  0
 29 74  1  0  0  0  0
 29 75  1  0  0  0  0
 29 76  1  0  0  0  0
 30 77  1  0  0  0  0
 30 78  1  0  0  0  0
 30 79  1  0  0  0  0
 31 80  1  0  0  0  0
 31 81  1  0  0  0  0
 31 82  1  0  0  0  0
M  END
> <PUBCHEM_COMPOUND_CID>
101341

> <PUBCHEM_CONFORMER_RMSD>
0.8

> <PUBCHEM_CONFORMER_DIVERSEORDER>
1

> <PUBCHEM_MMFF94_PARTIAL_CHARGES>
3
1 -0.68
26 0.28
83 0.4

> <PUBCHEM_EFFECTIVE_ROTOR_COUNT>
2.8

> <PUBCHEM_PHARMACOPHORE_FEATURES>
8
1 1 acceptor
1 1 donor
3 23 30 31 hydrophobe
6 2 3 4 5 9 11 rings
6 2 3 6 8 12 14 rings
6 4 5 7 10 13 15 rings
6 6 8 16 21 23 24 rings
6 7 10 19 20 26 28 rings

> <PUBCHEM_HEAVY_ATOM_COUNT>
31

> <PUBCHEM_ATOM_DEF_STEREO_COUNT>
10

> <PUBCHEM_ATOM_UDEF_STEREO_COUNT>
0

> <PUBCHEM_BOND_DEF_STEREO_COUNT>
0

> <PUBCHEM_BOND_UDEF_STEREO_COUNT>
0

> <PUBCHEM_ISOTOPIC_ATOM_COUNT>
0

> <PUBCHEM_COMPONENT_COUNT>
1

> <PUBCHEM_CACTVS_TAUTO_COUNT>
1

> <PUBCHEM_CONFORMER_ID>
00018BDD00000001

> <PUBCHEM_MMFF94_ENERGY>
169.5814

> <PUBCHEM_FEATURE_SELFOVERLAP>
40.648

> <PUBCHEM_SHAPE_FINGERPRINT>
10 15 18187931719585714121
10319926 262 17894921740855633307
10366900 7 13614521857042218767
10675989 125 16967445995085504685
10906281 52 18187662309446320934
11045977 3 18412545427260256032
11578080 2 17487884803911015369
12236239 1 18343862225327700334
12422481 6 17894349973302555581
12596602 18 18412823607960277330
12616971 3 16588029021456532046
12633257 1 16660648500332739510
12788726 201 18264767649756429889
13140716 1 18335983146968218546
13224815 77 18202290224831969390
13533116 47 17604144805980599730
13583140 156 18270684289281347713
13782708 43 13045947918940908817
13811026 1 18408882932410853271
13911987 19 16773799212040756073
14341114 176 18408322186160679434
14347332 77 8935004750294508553
144659 39 18131071545544825423
14790565 3 18267026248534733012
14856354 85 13984670239684320433
15021287 119 16588027918014018621
15082195 135 10519404360912104162
15142383 8 16226037864805573687
15183329 4 18040438784929409239
15196674 1 18409731785019757238
15238133 3 18186812369651431316
15788980 27 18260554437283773319
15840311 113 18197508316484299497
17349148 13 17968104143656884943
17980427 23 18336265725482493269
1813 80 16515683355920525910
20511986 3 18339911671480200763
20715895 44 18337955580507827337
21033648 144 18410006607778059165
21033648 29 18131342042384492034
21130935 74 18408603652047172994
21236236 1 18410290346255171311
21279426 13 18336549326315189975
21421861 104 17822562816555254338
21859007 373 17460019709125106637
23402539 116 18410007745622502343
23559900 14 18412548704019680820
23569943 247 16806714080339488378
24771293 8 18340200912459798812
2838139 119 18131345302571104857
3004659 81 17967824842492672180
32027 91 17558570022754665143
335352 9 18335140864688736550
3383291 50 17822299041302821043
34797466 226 17632584854763124981
34934 24 18411416206848016143
350125 39 18408604747653599404
3633792 109 18339918196137065861
3680242 22 18186804630210086754
392239 28 18343589559291906664
4073 2 18114186380026835162
4093350 32 17417819395966900326
4258327 124 14979093943323126032
4340502 62 18408889520452796442
465052 167 12324246053122009056
5104073 3 18334016094390032515
59755656 215 18335143029589968230
6086070 43 17560508612009151857
7226269 152 18272370845956467857
7495541 125 11386365967455033326
9995097 60 18335419054057689445

> <PUBCHEM_SHAPE_MULTIPOLES>
632.1
15.56
2.54
1.46
2.17
0.04
0.4
-4.97
-4.28
-0.64
-0.19
0.12
0.05
0.34

> <PUBCHEM_SHAPE_SELFOVERLAP>
1326.073

> <PUBCHEM_SHAPE_VOLUME>
353.2

> <PUBCHEM_COORDINATE_TYPE>
2
5
10

$$$$
