5471662
  -OEChem-08282002163D

 97102  0     1  0  0  0  0  0999 V2000
    4.1850   -0.9939    0.7704 O   0  0  0  0  0  0  0  0  0  0  0  0
    4.6129    0.8836    2.0468 O   0  0  0  0  0  0  0  0  0  0  0  0
   -2.4974   -1.3881   -0.3186 C   0  0  1  0  0  0  0  0  0  0  0  0
   -3.9283   -0.9738    0.3408 C   0  0  1  0  0  0  0  0  0  0  0  0
   -1.4866   -0.1809   -0.1438 C   0  0  1  0  0  0  0  0  0  0  0  0
   -4.4499    0.3396   -0.3765 C   0  0  1  0  0  0  0  0  0  0  0  0
    0.0427   -0.4765   -0.4933 C   0  0  2  0  0  0  0  0  0  0  0  0
   -5.8740    0.7022    0.0968 C   0  0  2  0  0  0  0  0  0  0  0  0
   -6.8713   -0.4420   -0.2041 C   0  0  1  0  0  0  0  0  0  0  0  0
    0.4678   -1.7537    0.3276 C   0  0  1  0  0  0  0  0  0  0  0  0
   -5.0016   -2.1150    0.2146 C   0  0  0  0  0  0  0  0  0  0  0  0
   -1.9047   -2.6502    0.3677 C   0  0  0  0  0  0  0  0  0  0  0  0
   -2.0501    1.1199   -0.7611 C   0  0  0  0  0  0  0  0  0  0  0  0
   -3.4439    1.4890   -0.2440 C   0  0  0  0  0  0  0  0  0  0  0  0
   -6.4424   -1.6936    0.5717 C   0  0  0  0  0  0  0  0  0  0  0  0
   -0.4459   -2.9537    0.0084 C   0  0  0  0  0  0  0  0  0  0  0  0
   -6.5900    1.9445   -0.4662 C   0  0  1  0  0  0  0  0  0  0  0  0
    2.0074   -2.0831    0.3496 C   0  0  0  0  0  0  0  0  0  0  0  0
    0.9133    0.7197    0.0070 C   0  0  0  0  0  0  0  0  0  0  0  0
   -2.6916   -1.7494   -1.8224 C   0  0  0  0  0  0  0  0  0  0  0  0
   -3.7819   -0.7233    1.8822 C   0  0  0  0  0  0  0  0  0  0  0  0
   -8.1760    0.1984    0.2877 C   0  0  0  0  0  0  0  0  0  0  0  0
   -8.0865    1.6602   -0.1870 C   0  0  0  0  0  0  0  0  0  0  0  0
    0.2753   -0.6106   -2.0173 C   0  0  0  0  0  0  0  0  0  0  0  0
    2.7707   -0.8068    0.8119 C   0  0  2  0  0  0  0  0  0  0  0  0
    2.4160    0.4467    0.0202 C   0  0  0  0  0  0  0  0  0  0  0  0
   -7.0353   -0.7936   -1.7051 C   0  0  0  0  0  0  0  0  0  0  0  0
    2.2957   -3.1906    1.4012 C   0  0  0  0  0  0  0  0  0  0  0  0
    2.5484   -2.6210   -0.9903 C   0  0  0  0  0  0  0  0  0  0  0  0
   -6.1688    3.2420    0.1449 C   0  0  0  0  0  0  0  0  0  0  0  0
   -6.3125    3.3491    1.6341 C   0  0  0  0  0  0  0  0  0  0  0  0
   -5.6892    4.2520   -0.5958 C   0  0  0  0  0  0  0  0  0  0  0  0
    4.9313    0.0604    1.2035 C   0  0  0  0  0  0  0  0  0  0  0  0
    6.2142    0.0393    0.4649 C   0  0  0  0  0  0  0  0  0  0  0  0
    7.1386    0.9764    0.7195 C   0  0  0  0  0  0  0  0  0  0  0  0
    8.4539    1.0552    0.0600 C   0  0  0  0  0  0  0  0  0  0  0  0
    8.6457    0.4094   -1.1507 C   0  0  0  0  0  0  0  0  0  0  0  0
    9.4733    1.7741    0.6629 C   0  0  0  0  0  0  0  0  0  0  0  0
    9.8906    0.4843   -1.7754 C   0  0  0  0  0  0  0  0  0  0  0  0
   10.7182    1.8493    0.0382 C   0  0  0  0  0  0  0  0  0  0  0  0
   10.9268    1.2043   -1.1810 C   0  0  0  0  0  0  0  0  0  0  0  0
   -1.4487    0.0196    0.9342 H   0  0  0  0  0  0  0  0  0  0  0  0
   -4.5291    0.1424   -1.4499 H   0  0  0  0  0  0  0  0  0  0  0  0
   -5.8341    0.8222    1.1846 H   0  0  0  0  0  0  0  0  0  0  0  0
    0.2404   -1.5035    1.3780 H   0  0  0  0  0  0  0  0  0  0  0  0
   -4.7242   -2.9611    0.8557 H   0  0  0  0  0  0  0  0  0  0  0  0
   -5.0292   -2.5165   -0.7995 H   0  0  0  0  0  0  0  0  0  0  0  0
   -2.5126   -3.5318    0.1300 H   0  0  0  0  0  0  0  0  0  0  0  0
   -1.9347   -2.5465    1.4559 H   0  0  0  0  0  0  0  0  0  0  0  0
   -2.0966    1.0475   -1.8519 H   0  0  0  0  0  0  0  0  0  0  0  0
   -1.3918    1.9661   -0.5407 H   0  0  0  0  0  0  0  0  0  0  0  0
   -3.7761    2.3431   -0.8393 H   0  0  0  0  0  0  0  0  0  0  0  0
   -3.3770    1.8338    0.7935 H   0  0  0  0  0  0  0  0  0  0  0  0
   -6.5182   -1.5197    1.6515 H   0  0  0  0  0  0  0  0  0  0  0  0
   -7.1246   -2.5259    0.3577 H   0  0  0  0  0  0  0  0  0  0  0  0
   -0.3602   -3.2627   -1.0363 H   0  0  0  0  0  0  0  0  0  0  0  0
   -0.1540   -3.8269    0.6003 H   0  0  0  0  0  0  0  0  0  0  0  0
   -6.4382    1.9826   -1.5532 H   0  0  0  0  0  0  0  0  0  0  0  0
    0.6099    0.9936    1.0262 H   0  0  0  0  0  0  0  0  0  0  0  0
    0.7395    1.6046   -0.6167 H   0  0  0  0  0  0  0  0  0  0  0  0
   -3.0196   -0.9048   -2.4312 H   0  0  0  0  0  0  0  0  0  0  0  0
   -1.7832   -2.1291   -2.2860 H   0  0  0  0  0  0  0  0  0  0  0  0
   -3.4151   -2.5557   -1.9626 H   0  0  0  0  0  0  0  0  0  0  0  0
   -4.7215   -0.4250    2.3533 H   0  0  0  0  0  0  0  0  0  0  0  0
   -3.0647    0.0600    2.1318 H   0  0  0  0  0  0  0  0  0  0  0  0
   -3.4785   -1.6297    2.4137 H   0  0  0  0  0  0  0  0  0  0  0  0
   -9.0742   -0.2992   -0.0923 H   0  0  0  0  0  0  0  0  0  0  0  0
   -8.2282    0.1798    1.3836 H   0  0  0  0  0  0  0  0  0  0  0  0
   -8.6441    1.7702   -1.1264 H   0  0  0  0  0  0  0  0  0  0  0  0
   -8.5791    2.3294    0.5232 H   0  0  0  0  0  0  0  0  0  0  0  0
    0.2085   -1.6405   -2.3704 H   0  0  0  0  0  0  0  0  0  0  0  0
    1.2604   -0.2525   -2.3266 H   0  0  0  0  0  0  0  0  0  0  0  0
   -0.4314   -0.0156   -2.6002 H   0  0  0  0  0  0  0  0  0  0  0  0
    2.4977   -0.6268    1.8624 H   0  0  0  0  0  0  0  0  0  0  0  0
    2.8152    0.3734   -0.9975 H   0  0  0  0  0  0  0  0  0  0  0  0
    2.8944    1.3404    0.4343 H   0  0  0  0  0  0  0  0  0  0  0  0
   -7.3675    0.0572   -2.3075 H   0  0  0  0  0  0  0  0  0  0  0  0
   -6.1127   -1.1623   -2.1604 H   0  0  0  0  0  0  0  0  0  0  0  0
   -7.7895   -1.5803   -1.8278 H   0  0  0  0  0  0  0  0  0  0  0  0
    1.9038   -4.1640    1.0895 H   0  0  0  0  0  0  0  0  0  0  0  0
    3.3725   -3.3242    1.5572 H   0  0  0  0  0  0  0  0  0  0  0  0
    1.8526   -2.9419    2.3720 H   0  0  0  0  0  0  0  0  0  0  0  0
    2.5940   -1.8571   -1.7667 H   0  0  0  0  0  0  0  0  0  0  0  0
    3.5720   -2.9983   -0.8762 H   0  0  0  0  0  0  0  0  0  0  0  0
    1.9450   -3.4536   -1.3651 H   0  0  0  0  0  0  0  0  0  0  0  0
   -6.1473    4.3797    1.9706 H   0  0  0  0  0  0  0  0  0  0  0  0
   -5.5661    2.7342    2.1461 H   0  0  0  0  0  0  0  0  0  0  0  0
   -7.3028    3.0654    1.9955 H   0  0  0  0  0  0  0  0  0  0  0  0
   -5.3840    5.1888   -0.1418 H   0  0  0  0  0  0  0  0  0  0  0  0
   -5.5891    4.1670   -1.6727 H   0  0  0  0  0  0  0  0  0  0  0  0
    6.3575   -0.7649   -0.2474 H   0  0  0  0  0  0  0  0  0  0  0  0
    6.9464    1.7437    1.4662 H   0  0  0  0  0  0  0  0  0  0  0  0
    7.8628   -0.1433   -1.6603 H   0  0  0  0  0  0  0  0  0  0  0  0
    9.3269    2.2809    1.6130 H   0  0  0  0  0  0  0  0  0  0  0  0
   10.0522   -0.0134   -2.7271 H   0  0  0  0  0  0  0  0  0  0  0  0
   11.5253    2.4099    0.5008 H   0  0  0  0  0  0  0  0  0  0  0  0
   11.8957    1.2638   -1.6679 H   0  0  0  0  0  0  0  0  0  0  0  0
  1 25  1  0  0  0  0
  1 33  1  0  0  0  0
  2 33  2  0  0  0  0
  3  4  1  0  0  0  0
  3  5  1  0  0  0  0
  3 12  1  0  0  0  0
  3 20  1  0  0  0  0
  4  6  1  0  0  0  0
  4 11  1  0  0  0  0
  4 21  1  0  0  0  0
  5  7  1  0  0  0  0
  5 13  1  0  0  0  0
  5 42  1  0  0  0  0
  6  8  1  0  0  0  0
  6 14  1  0  0  0  0
  6 43  1  0  0  0  0
  7 10  1  0  0  0  0
  7 19  1  0  0  0  0
  7 24  1  0  0  0  0
  8  9  1  0  0  0  0
  8 17  1  0  0  0  0
  8 44  1  0  0  0  0
  9 15  1  0  0  0  0
  9 22  1  0  0  0  0
  9 27  1  0  0  0  0
 10 16  1  0  0  0  0
 10 18  1  0  0  0  0
 10 45  1  0  0  0  0
 11 15  1  0  0  0  0
 11 46  1  0  0  0  0
 11 47  1  0  0  0  0
 12 16  1  0  0  0  0
 12 48  1  0  0  0  0
 12 49  1  0  0  0  0
 13 14  1  0  0  0  0
 13 50  1  0  0  0  0
 13 51  1  0  0  0  0
 14 52  1  0  0  0  0
 14 53  1  0  0  0  0
 15 54  1  0  0  0  0
 15 55  1  0  0  0  0
 16 56  1  0  0  0  0
 16 57  1  0  0  0  0
 17 23  1  0  0  0  0
 17 30  1  0  0  0  0
 17 58  1  0  0  0  0
 18 25  1  0  0  0  0
 18 28  1  0  0  0  0
 18 29  1  0  0  0  0
 19 26  1  0  0  0  0
 19 59  1  0  0  0  0
 19 60  1  0  0  0  0
 20 61  1  0  0  0  0
 20 62  1  0  0  0  0
 20 63  1  0  0  0  0
 21 64  1  0  0  0  0
 21 65  1  0  0  0  0
 21 66  1  0  0  0  0
 22 23  1  0  0  0  0
 22 67  1  0  0  0  0
 22 68  1  0  0  0  0
 23 69  1  0  0  0  0
 23 70  1  0  0  0  0
 24 71  1  0  0  0  0
 24 72  1  0  0  0  0
 24 73  1  0  0  0  0
 25 26  1  0  0  0  0
 25 74  1  0  0  0  0
 26 75  1  0  0  0  0
 26 76  1  0  0  0  0
 27 77  1  0  0  0  0
 27 78  1  0  0  0  0
 27 79  1  0  0  0  0
 28 80  1  0  0  0  0
 28 81  1  0  0  0  0
 28 82  1  0  0  0  0
 29 83  1  0  0  0  0
 29 84  1  0  0  0  0
 29 85  1  0  0  0  0
 30 31  1  0  0  0  0
 30 32  2  0  0  0  0
 31 86  1  0  0  0  0
 31 87  1  0  0  0  0
 31 88  1  0  0  0  0
 32 89  1  0  0  0  0
 32 90  1  0  0  0  0
 33 34  1  0  0  0  0
 34 35  2  0  0  0  0
 34 91  1  0  0  0  0
 35 36  1  0  0  0  0
 35 92  1  0  0  0  0
 36 37  2  0  0  0  0
 36 38  1  0  0  0  0
 37 39  1  0  0  0  0
 37 93  1  0  0  0  0
 38 40  2  0  0  0  0
 38 94  1  0  0  0  0
 39 41  2  0  0  0  0
 39 95  1  0  0  0  0
 40 41  1  0  0  0  0
 40 96  1  0  0  0  0
 41 97  1  0  0  0  0
M  END
> <PUBCHEM_COMPOUND_CID>
5471662

> <PUBCHEM_CONFORMER_RMSD>
1

> <PUBCHEM_CONFORMER_DIVERSEORDER>
4
8
9
7
10
3
5
1
11
6
12
2
13

> <PUBCHEM_MMFF94_PARTIAL_CHARGES>
25
1 -0.43
17 0.14
2 -0.57
25 0.28
30 -0.28
31 0.14
32 -0.3
33 0.71
34 -0.14
35 -0.18
36 0.03
37 -0.15
38 -0.15
39 -0.15
40 -0.15
41 -0.15
89 0.15
90 0.15
91 0.15
92 0.15
93 0.15
94 0.15
95 0.15
96 0.15
97 0.15

> <PUBCHEM_EFFECTIVE_ROTOR_COUNT>
7.6

> <PUBCHEM_PHARMACOPHORE_FEATURES>
8
1 2 acceptor
3 18 28 29 hydrophobe
5 8 9 17 22 23 rings
6 3 4 5 6 13 14 rings
6 3 5 7 10 12 16 rings
6 36 37 38 39 40 41 rings
6 4 6 8 9 11 15 rings
6 7 10 18 19 25 26 rings

> <PUBCHEM_HEAVY_ATOM_COUNT>
41

> <PUBCHEM_ATOM_DEF_STEREO_COUNT>
10

> <PUBCHEM_ATOM_UDEF_STEREO_COUNT>
0

> <PUBCHEM_BOND_DEF_STEREO_COUNT>
1

> <PUBCHEM_BOND_UDEF_STEREO_COUNT>
0

> <PUBCHEM_ISOTOPIC_ATOM_COUNT>
0

> <PUBCHEM_COMPONENT_COUNT>
1

> <PUBCHEM_CACTVS_TAUTO_COUNT>
1

> <PUBCHEM_CONFORMER_ID>
00537DAE00000004

> <PUBCHEM_MMFF94_ENERGY>
188.9438

> <PUBCHEM_FEATURE_SELFOVERLAP>
40.693

> <PUBCHEM_SHAPE_FINGERPRINT>
10 15 18040712576299493090
10670039 82 15913335675476610674
10674148 151 18340764932313199216
10930396 42 15864067680991773607
11061554 47 18271801346595203752
11181472 205 18334858304251143442
11315181 36 18040150730379299035
11374522 101 18040992908673050021
12013929 94 18189056563126268283
12089408 11 18113332025474900530
12120059 9 11386357158746719840
12133447 93 18411708656241882004
12498461 61 10015588290173704476
12741549 16 13262395562030064759
13383665 225 18188503402135654254
13553644 42 18129953265928688486
13811026 1 18201725033644006988
14040221 97 18260825956294625645
14279260 333 9367352522473344209
14664723 55 18412549825507863960
15064981 113 16343703179910359540
15461852 350 17774999133048387535
1577012 14 18334286583779526210
15773216 30 18059017173519262750
16728433 281 17844819096075075008
16992610 120 18187937196982468966
18603816 31 13118290300208795913
19841028 212 9943267921869192092
2026 5 10303821973508496660
21585482 111 18335979757670251932
23729398 52 18118682107518287610
24771293 8 18260548905002211548
3092352 35 17676483978565044178
3711267 37 18187373164312582828
3986486 107 17917999356942789624
3991529 128 18040724675259555268
4017518 198 17418375817686876287
4073 2 18259987046282207107
4169191 19 18259980457828189741
44802255 64 17917991689830399495
4516262 110 18187634769973984071
5028188 123 18272087262351086526
5104073 3 18263081021016633451
5265222 85 18341895181819938143
5758199 1 18186517709621169362
58902169 19 13470397907428264961
5937810 71 18130796620187876545
6201320 82 17845101662838668321
6673363 416 18343581872244652801
6691757 9 16225771834811042785
6703917 75 18334581269748806242
9663363 56 13912598373491582335

> <PUBCHEM_SHAPE_MULTIPOLES>
832.02
32.98
3.56
1.47
78.38
1.16
-0.12
26.96
-4.46
-5.29
0.45
0.75
-0.13
-0.64

> <PUBCHEM_SHAPE_SELFOVERLAP>
1772.407

> <PUBCHEM_SHAPE_VOLUME>
460.7

> <PUBCHEM_COORDINATE_TYPE>
2
5
10

$$$$
