234102
  -OEChem-08282003483D

 85 89  0     1  0  0  0  0  0999 V2000
    6.5100   -0.3114   -0.3487 O   0  0  0  0  0  0  0  0  0  0  0  0
    0.5119   -1.3506    2.4017 O   0  0  0  0  0  0  0  0  0  0  0  0
   -5.4055    2.5984    0.7895 O   0  0  0  0  0  0  0  0  0  0  0  0
   -4.2016    1.2508    2.1788 O   0  0  0  0  0  0  0  0  0  0  0  0
    6.7591   -2.5874   -0.6563 O   0  0  0  0  0  0  0  0  0  0  0  0
   -0.1038    1.1494   -0.1565 C   0  0  2  0  0  0  0  0  0  0  0  0
    2.2980    0.1736    0.6217 C   0  0  2  0  0  0  0  0  0  0  0  0
    0.7523   -0.0789    0.3297 C   0  0  1  0  0  0  0  0  0  0  0  0
   -1.5395    0.6013   -0.7150 C   0  0  1  0  0  0  0  0  0  0  0  0
    2.9013    0.9199   -0.6302 C   0  0  1  0  0  0  0  0  0  0  0  0
    0.6724    1.9169   -1.2611 C   0  0  0  0  0  0  0  0  0  0  0  0
    2.1309    2.2238   -0.9168 C   0  0  0  0  0  0  0  0  0  0  0  0
    4.4715    1.0524   -0.6763 C   0  0  0  0  0  0  0  0  0  0  0  0
   -2.1912   -0.3509    0.3039 C   0  0  0  0  0  0  0  0  0  0  0  0
   -3.7005   -0.6516    0.2355 C   0  0  1  0  0  0  0  0  0  0  0  0
   -2.4925    1.7982   -1.0056 C   0  0  0  0  0  0  0  0  0  0  0  0
   -4.5615    0.5941   -0.1358 C   0  0  1  0  0  0  0  0  0  0  0  0
    3.0256   -1.2047    0.7242 C   0  0  0  0  0  0  0  0  0  0  0  0
   -3.9407    1.4053   -1.2877 C   0  0  0  0  0  0  0  0  0  0  0  0
   -0.0180   -0.8089    1.4342 C   0  0  0  0  0  0  0  0  0  0  0  0
   -0.3394    2.1581    1.0118 C   0  0  0  0  0  0  0  0  0  0  0  0
    5.0905   -0.3650   -0.4882 C   0  0  2  0  0  0  0  0  0  0  0  0
    2.5177    0.9380    1.9515 C   0  0  0  0  0  0  0  0  0  0  0  0
    4.5494   -1.1123    0.7244 C   0  0  0  0  0  0  0  0  0  0  0  0
   -4.1166   -1.8754   -0.6429 C   0  0  2  0  0  0  0  0  0  0  0  0
   -1.3682   -0.1877   -2.0452 C   0  0  0  0  0  0  0  0  0  0  0  0
   -1.4882   -0.9370    1.2907 C   0  0  0  0  0  0  0  0  0  0  0  0
   -6.0107    0.2143   -0.5363 C   0  0  0  0  0  0  0  0  0  0  0  0
   -5.5952   -2.2791   -0.3474 C   0  0  1  0  0  0  0  0  0  0  0  0
    4.9088    1.5703   -2.0758 C   0  0  0  0  0  0  0  0  0  0  0  0
    5.0446    2.0550    0.3450 C   0  0  0  0  0  0  0  0  0  0  0  0
   -6.4602   -1.0905    0.1085 C   0  0  0  0  0  0  0  0  0  0  0  0
   -4.6831    1.4893    1.0813 C   0  0  0  0  0  0  0  0  0  0  0  0
   -3.2060   -3.0989   -0.4643 C   0  0  0  0  0  0  0  0  0  0  0  0
   -6.2303   -2.9590   -1.5684 C   0  0  0  0  0  0  0  0  0  0  0  0
    7.1340   -1.5164   -0.1986 C   0  0  0  0  0  0  0  0  0  0  0  0
    8.3744   -1.3437    0.6247 C   0  0  0  0  0  0  0  0  0  0  0  0
    0.7634   -0.8033   -0.4953 H   0  0  0  0  0  0  0  0  0  0  0  0
    2.6720    0.2630   -1.4869 H   0  0  0  0  0  0  0  0  0  0  0  0
    0.1633    2.8573   -1.5042 H   0  0  0  0  0  0  0  0  0  0  0  0
    0.6955    1.3375   -2.1887 H   0  0  0  0  0  0  0  0  0  0  0  0
    2.5555    2.7423   -1.7816 H   0  0  0  0  0  0  0  0  0  0  0  0
    2.1923    2.9303   -0.0850 H   0  0  0  0  0  0  0  0  0  0  0  0
   -3.9875   -0.9519    1.2564 H   0  0  0  0  0  0  0  0  0  0  0  0
   -2.1180    2.3755   -1.8600 H   0  0  0  0  0  0  0  0  0  0  0  0
   -2.5249    2.4944   -0.1642 H   0  0  0  0  0  0  0  0  0  0  0  0
    2.7251   -1.8421   -0.1181 H   0  0  0  0  0  0  0  0  0  0  0  0
    2.7266   -1.7378    1.6323 H   0  0  0  0  0  0  0  0  0  0  0  0
   -4.5159    2.3191   -1.4852 H   0  0  0  0  0  0  0  0  0  0  0  0
   -3.9847    0.8312   -2.2207 H   0  0  0  0  0  0  0  0  0  0  0  0
   -0.7635    3.1010    0.6508 H   0  0  0  0  0  0  0  0  0  0  0  0
   -1.0128    1.7665    1.7794 H   0  0  0  0  0  0  0  0  0  0  0  0
    0.5785    2.4533    1.5136 H   0  0  0  0  0  0  0  0  0  0  0  0
    4.8621   -0.9538   -1.3885 H   0  0  0  0  0  0  0  0  0  0  0  0
    1.7065    0.7778    2.6666 H   0  0  0  0  0  0  0  0  0  0  0  0
    3.4223    0.6210    2.4762 H   0  0  0  0  0  0  0  0  0  0  0  0
    2.6103    2.0167    1.8117 H   0  0  0  0  0  0  0  0  0  0  0  0
    4.9179   -0.6529    1.6484 H   0  0  0  0  0  0  0  0  0  0  0  0
    4.9183   -2.1423    0.7699 H   0  0  0  0  0  0  0  0  0  0  0  0
   -4.0551   -1.5819   -1.6972 H   0  0  0  0  0  0  0  0  0  0  0  0
   -1.0369    0.4587   -2.8636 H   0  0  0  0  0  0  0  0  0  0  0  0
   -0.6598   -1.0156   -1.9595 H   0  0  0  0  0  0  0  0  0  0  0  0
   -2.3040   -0.6281   -2.3939 H   0  0  0  0  0  0  0  0  0  0  0  0
   -1.9713   -1.5827    2.0184 H   0  0  0  0  0  0  0  0  0  0  0  0
   -6.0823    0.0941   -1.6256 H   0  0  0  0  0  0  0  0  0  0  0  0
   -6.7400    0.9929   -0.2851 H   0  0  0  0  0  0  0  0  0  0  0  0
   -5.6108   -3.0130    0.4700 H   0  0  0  0  0  0  0  0  0  0  0  0
    5.9960    1.5041   -2.2008 H   0  0  0  0  0  0  0  0  0  0  0  0
    4.6403    2.6203   -2.2287 H   0  0  0  0  0  0  0  0  0  0  0  0
    4.4513    0.9811   -2.8782 H   0  0  0  0  0  0  0  0  0  0  0  0
    4.5308    3.0201    0.2939 H   0  0  0  0  0  0  0  0  0  0  0  0
    6.1060    2.2514    0.1505 H   0  0  0  0  0  0  0  0  0  0  0  0
    4.9865    1.6932    1.3723 H   0  0  0  0  0  0  0  0  0  0  0  0
   -6.3962   -0.9917    1.1998 H   0  0  0  0  0  0  0  0  0  0  0  0
   -7.5183   -1.2722   -0.1145 H   0  0  0  0  0  0  0  0  0  0  0  0
   -3.5529   -3.9444   -1.0662 H   0  0  0  0  0  0  0  0  0  0  0  0
   -2.1822   -2.8870   -0.7865 H   0  0  0  0  0  0  0  0  0  0  0  0
   -3.1797   -3.4239    0.5810 H   0  0  0  0  0  0  0  0  0  0  0  0
   -5.6682   -3.8478   -1.8697 H   0  0  0  0  0  0  0  0  0  0  0  0
   -7.2526   -3.2819   -1.3433 H   0  0  0  0  0  0  0  0  0  0  0  0
   -6.2734   -2.2793   -2.4259 H   0  0  0  0  0  0  0  0  0  0  0  0
   -5.4958    3.1912    1.5657 H   0  0  0  0  0  0  0  0  0  0  0  0
    8.1112   -0.9622    1.6144 H   0  0  0  0  0  0  0  0  0  0  0  0
    9.0627   -0.6617    0.1192 H   0  0  0  0  0  0  0  0  0  0  0  0
    8.8680   -2.3123    0.7446 H   0  0  0  0  0  0  0  0  0  0  0  0
  1 22  1  0  0  0  0
  1 36  1  0  0  0  0
  2 20  2  0  0  0  0
  3 33  1  0  0  0  0
  3 82  1  0  0  0  0
  4 33  2  0  0  0  0
  5 36  2  0  0  0  0
  6  8  1  0  0  0  0
  6  9  1  0  0  0  0
  6 11  1  0  0  0  0
  6 21  1  0  0  0  0
  7  8  1  0  0  0  0
  7 10  1  0  0  0  0
  7 18  1  0  0  0  0
  7 23  1  0  0  0  0
  8 20  1  0  0  0  0
  8 38  1  0  0  0  0
  9 14  1  0  0  0  0
  9 16  1  0  0  0  0
  9 26  1  0  0  0  0
 10 12  1  0  0  0  0
 10 13  1  0  0  0  0
 10 39  1  0  0  0  0
 11 12  1  0  0  0  0
 11 40  1  0  0  0  0
 11 41  1  0  0  0  0
 12 42  1  0  0  0  0
 12 43  1  0  0  0  0
 13 22  1  0  0  0  0
 13 30  1  0  0  0  0
 13 31  1  0  0  0  0
 14 15  1  0  0  0  0
 14 27  2  0  0  0  0
 15 17  1  0  0  0  0
 15 25  1  0  0  0  0
 15 44  1  0  0  0  0
 16 19  1  0  0  0  0
 16 45  1  0  0  0  0
 16 46  1  0  0  0  0
 17 19  1  0  0  0  0
 17 28  1  0  0  0  0
 17 33  1  0  0  0  0
 18 24  1  0  0  0  0
 18 47  1  0  0  0  0
 18 48  1  0  0  0  0
 19 49  1  0  0  0  0
 19 50  1  0  0  0  0
 20 27  1  0  0  0  0
 21 51  1  0  0  0  0
 21 52  1  0  0  0  0
 21 53  1  0  0  0  0
 22 24  1  0  0  0  0
 22 54  1  0  0  0  0
 23 55  1  0  0  0  0
 23 56  1  0  0  0  0
 23 57  1  0  0  0  0
 24 58  1  0  0  0  0
 24 59  1  0  0  0  0
 25 29  1  0  0  0  0
 25 34  1  0  0  0  0
 25 60  1  0  0  0  0
 26 61  1  0  0  0  0
 26 62  1  0  0  0  0
 26 63  1  0  0  0  0
 27 64  1  0  0  0  0
 28 32  1  0  0  0  0
 28 65  1  0  0  0  0
 28 66  1  0  0  0  0
 29 32  1  0  0  0  0
 29 35  1  0  0  0  0
 29 67  1  0  0  0  0
 30 68  1  0  0  0  0
 30 69  1  0  0  0  0
 30 70  1  0  0  0  0
 31 71  1  0  0  0  0
 31 72  1  0  0  0  0
 31 73  1  0  0  0  0
 32 74  1  0  0  0  0
 32 75  1  0  0  0  0
 34 76  1  0  0  0  0
 34 77  1  0  0  0  0
 34 78  1  0  0  0  0
 35 79  1  0  0  0  0
 35 80  1  0  0  0  0
 35 81  1  0  0  0  0
 36 37  1  0  0  0  0
 37 83  1  0  0  0  0
 37 84  1  0  0  0  0
 37 85  1  0  0  0  0
M  END
> <PUBCHEM_COMPOUND_CID>
234102

> <PUBCHEM_CONFORMER_RMSD>
0.8

> <PUBCHEM_CONFORMER_DIVERSEORDER>
1
2

> <PUBCHEM_MMFF94_PARTIAL_CHARGES>
18
1 -0.43
14 -0.28
15 0.14
17 0.06
2 -0.57
20 0.49
22 0.28
27 -0.14
3 -0.65
33 0.66
36 0.66
37 0.06
4 -0.57
5 -0.57
64 0.15
8 0.06
82 0.5
9 0.14

> <PUBCHEM_EFFECTIVE_ROTOR_COUNT>
5.4

> <PUBCHEM_PHARMACOPHORE_FEATURES>
11
1 2 acceptor
1 3 acceptor
1 4 acceptor
1 5 acceptor
3 13 30 31 hydrophobe
3 3 4 33 anion
6 15 17 25 28 29 32 rings
6 6 7 8 10 11 12 rings
6 6 8 9 14 20 27 rings
6 7 10 13 18 22 24 rings
6 9 14 15 16 17 19 rings

> <PUBCHEM_HEAVY_ATOM_COUNT>
37

> <PUBCHEM_ATOM_DEF_STEREO_COUNT>
10

> <PUBCHEM_ATOM_UDEF_STEREO_COUNT>
0

> <PUBCHEM_BOND_DEF_STEREO_COUNT>
0

> <PUBCHEM_BOND_UDEF_STEREO_COUNT>
0

> <PUBCHEM_ISOTOPIC_ATOM_COUNT>
0

> <PUBCHEM_COMPONENT_COUNT>
1

> <PUBCHEM_CACTVS_TAUTO_COUNT>
5

> <PUBCHEM_CONFORMER_ID>
0003927600000001

> <PUBCHEM_MMFF94_ENERGY>
159.1846

> <PUBCHEM_FEATURE_SELFOVERLAP>
55.944

> <PUBCHEM_SHAPE_FINGERPRINT>
10 15 14764344947162887378
10670039 82 16660358148154422772
11524674 6 17203607103553256639
117089 54 17975417137982888755
11991303 11 14635161152382193882
12107698 1 18333730204819911350
12166972 35 18412265072706137513
12236239 1 18411985771082923245
12741549 16 15769775780630326019
12788726 201 18115020784445434968
13583140 156 16988843874108236373
13782708 43 17346598633779288711
13811026 1 18413100676548584882
14040222 275 18041861536397224004
14068700 675 18410011031483869976
14840074 17 16950281827857956895
14856354 85 18202288009150798613
14955137 171 18201434817807903881
15021287 119 18040443186954759861
15082195 135 17824268322362197092
15183329 4 17676204663529426746
15361156 5 18041009444212119916
15439362 3 17840314316122241061
15510800 12 17702956808294976422
15799311 1 18340781376508780775
18603816 31 17560787879869110391
18681886 176 18334851728413412296
19958102 18 18335696182491080263
20028762 73 18412825785720277238
21033648 29 15195298499330580617
21130935 74 18343863304087301642
21267235 1 18186804699409526451
21814621 53 17775278344635095834
22393880 68 17895463765733643772
23522609 53 18119279270352721460
23559900 14 18199741626299927057
23569943 247 18117273658475646578
24771293 8 18188770677814425284
3004659 81 18259700099774974018
397830 11 17631435908610509106
4098825 35 18409448090257201972
4173938 77 15864649344075519582
497634 4 18410854387193693525
504579 68 18187071863391962831
5104073 3 17989488545638199904
59755656 215 17530966844059051498
6009941 240 17632298917421012537
6086070 43 18343011194970320249

> <PUBCHEM_SHAPE_MULTIPOLES>
732.1
18.41
2.9
1.7
15.28
0.7
-0.24
9.48
2.63
-1.42
0.51
-0.27
-0.26
-1.93

> <PUBCHEM_SHAPE_SELFOVERLAP>
1558.155

> <PUBCHEM_SHAPE_VOLUME>
400.4

> <PUBCHEM_COORDINATE_TYPE>
2
5
10

$$$$
