219629
  -OEChem-08282002143D

 93 98  0     1  0  0  0  0  0999 V2000
    4.9353   -0.3765    0.6668 O   0  0  0  0  0  0  0  0  0  0  0  0
    5.2239    1.5631    1.8725 O   0  0  0  0  0  0  0  0  0  0  0  0
   -1.7085   -1.3638   -0.2734 C   0  0  1  0  0  0  0  0  0  0  0  0
   -3.1576   -1.0479    0.4005 C   0  0  1  0  0  0  0  0  0  0  0  0
   -0.7998   -0.0711   -0.1582 C   0  0  1  0  0  0  0  0  0  0  0  0
   -3.8001    0.1917   -0.3491 C   0  0  1  0  0  0  0  0  0  0  0  0
    0.7427   -0.2498   -0.5285 C   0  0  2  0  0  0  0  0  0  0  0  0
   -5.2415    0.4502    0.1401 C   0  0  2  0  0  0  0  0  0  0  0  0
   -6.1438   -0.7831   -0.1035 C   0  0  1  0  0  0  0  0  0  0  0  0
    1.2877   -1.4583    0.3251 C   0  0  1  0  0  0  0  0  0  0  0  0
   -4.1331   -2.2785    0.3333 C   0  0  0  0  0  0  0  0  0  0  0  0
   -1.0001   -2.5478    0.4419 C   0  0  0  0  0  0  0  0  0  0  0  0
   -1.4812    1.1564   -0.8061 C   0  0  0  0  0  0  0  0  0  0  0  0
   -2.8922    1.4251   -0.2741 C   0  0  0  0  0  0  0  0  0  0  0  0
   -5.5981   -1.9670    0.7046 C   0  0  0  0  0  0  0  0  0  0  0  0
    0.4728   -2.7405    0.0640 C   0  0  0  0  0  0  0  0  0  0  0  0
   -6.0689    1.6082   -0.4492 C   0  0  1  0  0  0  0  0  0  0  0  0
    2.8498   -1.6571    0.3269 C   0  0  0  0  0  0  0  0  0  0  0  0
    1.5181    1.0312   -0.0854 C   0  0  0  0  0  0  0  0  0  0  0  0
   -1.8971   -1.7912   -1.7604 C   0  0  0  0  0  0  0  0  0  0  0  0
   -3.0066   -0.7332    1.9296 C   0  0  0  0  0  0  0  0  0  0  0  0
   -7.4894   -0.2375    0.3924 C   0  0  0  0  0  0  0  0  0  0  0  0
   -7.5312    1.2094   -0.1316 C   0  0  0  0  0  0  0  0  0  0  0  0
    0.9593   -0.4165   -2.0517 C   0  0  0  0  0  0  0  0  0  0  0  0
    3.5112   -0.3065    0.7312 C   0  0  2  0  0  0  0  0  0  0  0  0
    3.0385    0.8851   -0.0938 C   0  0  0  0  0  0  0  0  0  0  0  0
   -6.3026   -1.1985   -1.5887 C   0  0  0  0  0  0  0  0  0  0  0  0
    3.2484   -2.6995    1.4087 C   0  0  0  0  0  0  0  0  0  0  0  0
    3.4106   -2.1942   -1.0052 C   0  0  0  0  0  0  0  0  0  0  0  0
   -5.7483    2.9564    0.1109 C   0  0  0  0  0  0  0  0  0  0  0  0
   -5.8756    3.1022    1.5983 C   0  0  0  0  0  0  0  0  0  0  0  0
   -5.3680    3.9771   -0.6718 C   0  0  0  0  0  0  0  0  0  0  0  0
    5.6014    0.7455    1.0478 C   0  0  0  0  0  0  0  0  0  0  0  0
    6.8871    0.8626    0.3144 C   0  0  0  0  0  0  0  0  0  0  0  0
    7.3957    2.1186    0.0540 C   0  0  0  0  0  0  0  0  0  0  0  0
    7.5346   -0.2894   -0.0829 C   0  0  0  0  0  0  0  0  0  0  0  0
    8.6046    2.2274   -0.6335 C   0  0  0  0  0  0  0  0  0  0  0  0
    8.7433   -0.1806   -0.7704 C   0  0  0  0  0  0  0  0  0  0  0  0
    9.2784    1.0778   -1.0458 C   0  0  0  0  0  0  0  0  0  0  0  0
   -0.7604    0.1685    0.9118 H   0  0  0  0  0  0  0  0  0  0  0  0
   -3.8805   -0.0480   -1.4137 H   0  0  0  0  0  0  0  0  0  0  0  0
   -5.1935    0.6103    1.2224 H   0  0  0  0  0  0  0  0  0  0  0  0
    1.0585   -1.1918    1.3712 H   0  0  0  0  0  0  0  0  0  0  0  0
   -3.7746   -3.0759    0.9964 H   0  0  0  0  0  0  0  0  0  0  0  0
   -4.1439   -2.7159   -0.6662 H   0  0  0  0  0  0  0  0  0  0  0  0
   -1.5356   -3.4847    0.2453 H   0  0  0  0  0  0  0  0  0  0  0  0
   -1.0202   -2.4097    1.5265 H   0  0  0  0  0  0  0  0  0  0  0  0
   -1.5398    1.0435   -1.8928 H   0  0  0  0  0  0  0  0  0  0  0  0
   -0.8928    2.0617   -0.6261 H   0  0  0  0  0  0  0  0  0  0  0  0
   -2.8372    1.8096    0.7500 H   0  0  0  0  0  0  0  0  0  0  0  0
   -3.3052    2.2275   -0.8903 H   0  0  0  0  0  0  0  0  0  0  0  0
   -6.2113   -2.8603    0.5315 H   0  0  0  0  0  0  0  0  0  0  0  0
   -5.6700   -1.7628    1.7793 H   0  0  0  0  0  0  0  0  0  0  0  0
    0.8471   -3.5653    0.6783 H   0  0  0  0  0  0  0  0  0  0  0  0
    0.5663   -3.0772   -0.9714 H   0  0  0  0  0  0  0  0  0  0  0  0
   -5.9391    1.6216   -1.5396 H   0  0  0  0  0  0  0  0  0  0  0  0
    1.2106    1.3134    0.9304 H   0  0  0  0  0  0  0  0  0  0  0  0
    1.2596    1.8766   -0.7340 H   0  0  0  0  0  0  0  0  0  0  0  0
   -2.3045   -0.9980   -2.3900 H   0  0  0  0  0  0  0  0  0  0  0  0
   -0.9682   -2.1103   -2.2290 H   0  0  0  0  0  0  0  0  0  0  0  0
   -2.5533   -2.6589   -1.8600 H   0  0  0  0  0  0  0  0  0  0  0  0
   -2.6190   -1.5924    2.4844 H   0  0  0  0  0  0  0  0  0  0  0  0
   -2.3537    0.1153    2.1391 H   0  0  0  0  0  0  0  0  0  0  0  0
   -3.9599   -0.4985    2.4092 H   0  0  0  0  0  0  0  0  0  0  0  0
   -7.5215   -0.2227    1.4892 H   0  0  0  0  0  0  0  0  0  0  0  0
   -8.3487   -0.8211    0.0465 H   0  0  0  0  0  0  0  0  0  0  0  0
   -8.1116    1.2401   -1.0631 H   0  0  0  0  0  0  0  0  0  0  0  0
   -8.0665    1.8592    0.5657 H   0  0  0  0  0  0  0  0  0  0  0  0
    0.1952    0.0971   -2.6394 H   0  0  0  0  0  0  0  0  0  0  0  0
    1.9053    0.0115   -2.3924 H   0  0  0  0  0  0  0  0  0  0  0  0
    0.9732   -1.4600   -2.3693 H   0  0  0  0  0  0  0  0  0  0  0  0
    3.2426   -0.1138    1.7806 H   0  0  0  0  0  0  0  0  0  0  0  0
    3.4248    0.8105   -1.1163 H   0  0  0  0  0  0  0  0  0  0  0  0
    3.4477    1.8292    0.2811 H   0  0  0  0  0  0  0  0  0  0  0  0
   -6.7150   -0.3997   -2.2122 H   0  0  0  0  0  0  0  0  0  0  0  0
   -5.3600   -1.5043   -2.0494 H   0  0  0  0  0  0  0  0  0  0  0  0
   -6.9899   -2.0491   -1.6708 H   0  0  0  0  0  0  0  0  0  0  0  0
    2.9342   -3.7124    1.1374 H   0  0  0  0  0  0  0  0  0  0  0  0
    4.3352   -2.7374    1.5469 H   0  0  0  0  0  0  0  0  0  0  0  0
    2.8031   -2.4550    2.3795 H   0  0  0  0  0  0  0  0  0  0  0  0
    3.3786   -1.4564   -1.8071 H   0  0  0  0  0  0  0  0  0  0  0  0
    4.4641   -2.4806   -0.8993 H   0  0  0  0  0  0  0  0  0  0  0  0
    2.8729   -3.0867   -1.3401 H   0  0  0  0  0  0  0  0  0  0  0  0
   -6.8323    2.7491    1.9879 H   0  0  0  0  0  0  0  0  0  0  0  0
   -5.0715    2.5697    2.1154 H   0  0  0  0  0  0  0  0  0  0  0  0
   -5.7923    4.1539    1.8974 H   0  0  0  0  0  0  0  0  0  0  0  0
   -5.1353    4.9513   -0.2549 H   0  0  0  0  0  0  0  0  0  0  0  0
   -5.2792    3.8640   -1.7471 H   0  0  0  0  0  0  0  0  0  0  0  0
    6.8786    3.0208    0.3668 H   0  0  0  0  0  0  0  0  0  0  0  0
    7.1465   -1.2809    0.1305 H   0  0  0  0  0  0  0  0  0  0  0  0
    9.0209    3.2073   -0.8485 H   0  0  0  0  0  0  0  0  0  0  0  0
    9.2697   -1.0757   -1.0889 H   0  0  0  0  0  0  0  0  0  0  0  0
   10.2199    1.1625   -1.5806 H   0  0  0  0  0  0  0  0  0  0  0  0
  1 25  1  0  0  0  0
  1 33  1  0  0  0  0
  2 33  2  0  0  0  0
  3  4  1  0  0  0  0
  3  5  1  0  0  0  0
  3 12  1  0  0  0  0
  3 20  1  0  0  0  0
  4  6  1  0  0  0  0
  4 11  1  0  0  0  0
  4 21  1  0  0  0  0
  5  7  1  0  0  0  0
  5 13  1  0  0  0  0
  5 40  1  0  0  0  0
  6  8  1  0  0  0  0
  6 14  1  0  0  0  0
  6 41  1  0  0  0  0
  7 10  1  0  0  0  0
  7 19  1  0  0  0  0
  7 24  1  0  0  0  0
  8  9  1  0  0  0  0
  8 17  1  0  0  0  0
  8 42  1  0  0  0  0
  9 15  1  0  0  0  0
  9 22  1  0  0  0  0
  9 27  1  0  0  0  0
 10 16  1  0  0  0  0
 10 18  1  0  0  0  0
 10 43  1  0  0  0  0
 11 15  1  0  0  0  0
 11 44  1  0  0  0  0
 11 45  1  0  0  0  0
 12 16  1  0  0  0  0
 12 46  1  0  0  0  0
 12 47  1  0  0  0  0
 13 14  1  0  0  0  0
 13 48  1  0  0  0  0
 13 49  1  0  0  0  0
 14 50  1  0  0  0  0
 14 51  1  0  0  0  0
 15 52  1  0  0  0  0
 15 53  1  0  0  0  0
 16 54  1  0  0  0  0
 16 55  1  0  0  0  0
 17 23  1  0  0  0  0
 17 30  1  0  0  0  0
 17 56  1  0  0  0  0
 18 25  1  0  0  0  0
 18 28  1  0  0  0  0
 18 29  1  0  0  0  0
 19 26  1  0  0  0  0
 19 57  1  0  0  0  0
 19 58  1  0  0  0  0
 20 59  1  0  0  0  0
 20 60  1  0  0  0  0
 20 61  1  0  0  0  0
 21 62  1  0  0  0  0
 21 63  1  0  0  0  0
 21 64  1  0  0  0  0
 22 23  1  0  0  0  0
 22 65  1  0  0  0  0
 22 66  1  0  0  0  0
 23 67  1  0  0  0  0
 23 68  1  0  0  0  0
 24 69  1  0  0  0  0
 24 70  1  0  0  0  0
 24 71  1  0  0  0  0
 25 26  1  0  0  0  0
 25 72  1  0  0  0  0
 26 73  1  0  0  0  0
 26 74  1  0  0  0  0
 27 75  1  0  0  0  0
 27 76  1  0  0  0  0
 27 77  1  0  0  0  0
 28 78  1  0  0  0  0
 28 79  1  0  0  0  0
 28 80  1  0  0  0  0
 29 81  1  0  0  0  0
 29 82  1  0  0  0  0
 29 83  1  0  0  0  0
 30 31  1  0  0  0  0
 30 32  2  0  0  0  0
 31 84  1  0  0  0  0
 31 85  1  0  0  0  0
 31 86  1  0  0  0  0
 32 87  1  0  0  0  0
 32 88  1  0  0  0  0
 33 34  1  0  0  0  0
 34 35  2  0  0  0  0
 34 36  1  0  0  0  0
 35 37  1  0  0  0  0
 35 89  1  0  0  0  0
 36 38  2  0  0  0  0
 36 90  1  0  0  0  0
 37 39  2  0  0  0  0
 37 91  1  0  0  0  0
 38 39  1  0  0  0  0
 38 92  1  0  0  0  0
 39 93  1  0  0  0  0
M  END
> <PUBCHEM_COMPOUND_CID>
219629

> <PUBCHEM_CONFORMER_RMSD>
1

> <PUBCHEM_CONFORMER_DIVERSEORDER>
2
1
3
4

> <PUBCHEM_MMFF94_PARTIAL_CHARGES>
21
1 -0.43
17 0.14
2 -0.57
25 0.28
30 -0.28
31 0.14
32 -0.3
33 0.63
34 0.09
35 -0.15
36 -0.15
37 -0.15
38 -0.15
39 -0.15
87 0.15
88 0.15
89 0.15
90 0.15
91 0.15
92 0.15
93 0.15

> <PUBCHEM_EFFECTIVE_ROTOR_COUNT>
6.6

> <PUBCHEM_PHARMACOPHORE_FEATURES>
8
1 2 acceptor
3 18 28 29 hydrophobe
5 8 9 17 22 23 rings
6 3 4 5 6 13 14 rings
6 3 5 7 10 12 16 rings
6 34 35 36 37 38 39 rings
6 4 6 8 9 11 15 rings
6 7 10 18 19 25 26 rings

> <PUBCHEM_HEAVY_ATOM_COUNT>
39

> <PUBCHEM_ATOM_DEF_STEREO_COUNT>
10

> <PUBCHEM_ATOM_UDEF_STEREO_COUNT>
0

> <PUBCHEM_BOND_DEF_STEREO_COUNT>
0

> <PUBCHEM_BOND_UDEF_STEREO_COUNT>
0

> <PUBCHEM_ISOTOPIC_ATOM_COUNT>
0

> <PUBCHEM_COMPONENT_COUNT>
1

> <PUBCHEM_CACTVS_TAUTO_COUNT>
1

> <PUBCHEM_CONFORMER_ID>
000359ED00000002

> <PUBCHEM_MMFF94_ENERGY>
184.8308

> <PUBCHEM_FEATURE_SELFOVERLAP>
40.693

> <PUBCHEM_SHAPE_FINGERPRINT>
10 15 17967812747289805474
10369192 42 18273211993726053557
10674148 151 18409164429680039504
11007060 377 18408895030964727835
11315181 36 18040434421458881555
11505856 67 16270256834342167217
11991303 11 16773506776355122910
12013929 94 18116719710256699586
12133447 93 18411147909638371220
12522641 24 18114177485893844402
12539765 74 18272375226786498534
12643181 29 9007060158653129193
13383665 225 18114478786132846028
13782708 43 12540991633723381425
13811026 1 18409168797018493047
13911987 19 16988557992801119575
14118638 360 18410852145020311219
14294032 229 18113615647424180444
14394314 77 18337393738551168385
14849402 71 18408323302098516745
15021287 119 16515688836383328165
15064981 113 16558471894318318028
15289351 153 18342452613430655512
15301273 46 18333449863798956230
15461852 350 17989202694242581167
1577012 14 18335416842339390720
15840311 113 17967818280389604516
16728433 281 17987810600663555688
16989713 51 17559104592044313783
16992610 120 18114194060256451118
18608769 82 18409167748640329910
19611394 137 18042697280349339107
19841028 212 10087380906705933532
2026 5 11311789358372566692
21033648 144 18263355915960677421
21130935 74 18113898213053760347
21585482 111 18263079924914392405
21792961 116 17775008964623880786
21792965 106 17460026284889037037
23576562 1 18056750147064707157
24771293 8 18261112967489423044
3418910 222 18262248802035844837
3711267 37 18041853921468512244
3986486 107 18272664437769176044
4073 2 18187367623082026307
4093350 32 17632297835427046006
4169191 19 18260261941194407413
437795 83 18272933804389268065
44802255 64 17775282777316119959
5028188 123 18339366379092050982
504579 68 13902184863824578509
5104073 3 18262236617292241163
5265222 85 18269836579228800326
5758199 1 17967531285757380386
58902169 19 13470683780335442137
5937810 71 18201729426636461193
6081469 158 12823297892220756250
6086070 43 16128366121213253546
6523845 18 14692569914142677622
6691757 9 16008756826764028225

> <PUBCHEM_SHAPE_MULTIPOLES>
790.86
25.92
3.39
1.37
35.69
1.33
0
16.53
-1.36
-3.4
0.31
-0.05
-0.14
-0.52

> <PUBCHEM_SHAPE_SELFOVERLAP>
1691.307

> <PUBCHEM_SHAPE_VOLUME>
436.6

> <PUBCHEM_COORDINATE_TYPE>
2
5
10

$$$$
