102076594
  -OEChem-08282002042D

136140  0     1  0  0  0  0  0999 V2000
   11.1246   -3.9186    0.0000 O   0  0  0  0  0  0  0  0  0  0  0  0
   10.2528   -2.4219    0.0000 O   0  0  0  0  0  0  0  0  0  0  0  0
    6.6507   -7.5630    0.0000 C   0  0  1  0  0  0  0  0  0  0  0  0
    5.7847   -7.0630    0.0000 C   0  0  2  0  0  0  0  0  0  0  0  0
    7.5167   -7.0630    0.0000 C   0  0  2  0  0  0  0  0  0  0  0  0
    7.5167   -6.0630    0.0000 C   0  0  2  0  0  0  0  0  0  0  0  0
    4.8746   -7.5698    0.0000 C   0  0  1  0  0  0  0  0  0  0  0  0
    8.4106   -5.5283    0.0000 C   0  0  1  0  0  0  0  0  0  0  0  0
    4.8666   -8.6114    0.0000 C   0  0  1  0  0  0  0  0  0  0  0  0
    5.7847   -6.0630    0.0000 C   0  0  0  0  0  0  0  0  0  0  0  0
    9.3167   -6.0421    0.0000 C   0  0  2  0  0  0  0  0  0  0  0  0
    6.6507   -5.5630    0.0000 C   0  0  0  0  0  0  0  0  0  0  0  0
    6.6667   -8.6045    0.0000 C   0  0  0  0  0  0  0  0  0  0  0  0
    8.4106   -7.5976    0.0000 C   0  0  0  0  0  0  0  0  0  0  0  0
    5.7687   -9.1322    0.0000 C   0  0  0  0  0  0  0  0  0  0  0  0
    9.3167   -7.0838    0.0000 C   0  0  0  0  0  0  0  0  0  0  0  0
    3.9478   -7.0057    0.0000 C   0  0  0  0  0  0  0  0  0  0  0  0
    7.5167   -8.0630    0.0000 C   0  0  0  0  0  0  0  0  0  0  0  0
    4.9186   -6.5630    0.0000 C   0  0  0  0  0  0  0  0  0  0  0  0
   10.2605   -5.5069    0.0000 C   0  0  2  0  0  0  0  0  0  0  0  0
    8.3856   -4.4436    0.0000 C   0  0  0  0  0  0  0  0  0  0  0  0
    3.9312   -9.1611    0.0000 C   0  0  0  0  0  0  0  0  0  0  0  0
    7.5167   -5.0630    0.0000 C   0  0  0  0  0  0  0  0  0  0  0  0
    2.9999   -7.5337    0.0000 C   0  0  0  0  0  0  0  0  0  0  0  0
    2.9916   -8.6186    0.0000 C   0  0  0  0  0  0  0  0  0  0  0  0
    4.8589   -9.6114    0.0000 C   0  0  0  0  0  0  0  0  0  0  0  0
   10.2605   -4.4219    0.0000 C   0  0  1  0  0  0  0  0  0  0  0  0
   10.1866   -6.5354    0.0000 C   0  0  0  0  0  0  0  0  0  0  0  0
    9.3167   -3.8867    0.0000 C   0  0  0  0  0  0  0  0  0  0  0  0
   11.1246   -6.0102    0.0000 C   0  0  0  0  0  0  0  0  0  0  0  0
    2.0000   -7.5221    0.0000 C   0  0  0  0  0  0  0  0  0  0  0  0
    2.5100   -6.6619    0.0000 C   0  0  0  0  0  0  0  0  0  0  0  0
   11.1207   -2.9186    0.0000 C   0  0  0  0  0  0  0  0  0  0  0  0
   11.9848   -2.4152    0.0000 C   0  0  0  0  0  0  0  0  0  0  0  0
   11.9810   -1.4152    0.0000 C   0  0  0  0  0  0  0  0  0  0  0  0
   12.8451   -0.9119    0.0000 C   0  0  0  0  0  0  0  0  0  0  0  0
   12.8412    0.0881    0.0000 C   0  0  0  0  0  0  0  0  0  0  0  0
   13.7053    0.5914    0.0000 C   0  0  0  0  0  0  0  0  0  0  0  0
   13.7015    1.5914    0.0000 C   0  0  0  0  0  0  0  0  0  0  0  0
   14.5655    2.0947    0.0000 C   0  0  0  0  0  0  0  0  0  0  0  0
   14.5617    3.0947    0.0000 C   0  0  0  0  0  0  0  0  0  0  0  0
   15.4258    3.5981    0.0000 C   0  0  0  0  0  0  0  0  0  0  0  0
   15.4219    4.5981    0.0000 C   0  0  0  0  0  0  0  0  0  0  0  0
   16.2860    5.1014    0.0000 C   0  0  0  0  0  0  0  0  0  0  0  0
   16.2822    6.1014    0.0000 C   0  0  0  0  0  0  0  0  0  0  0  0
   17.1463    6.6047    0.0000 C   0  0  0  0  0  0  0  0  0  0  0  0
   17.1424    7.6047    0.0000 C   0  0  0  0  0  0  0  0  0  0  0  0
   18.0065    8.1080    0.0000 C   0  0  0  0  0  0  0  0  0  0  0  0
   18.0026    9.1080    0.0000 C   0  0  0  0  0  0  0  0  0  0  0  0
   18.8667    9.6114    0.0000 C   0  0  0  0  0  0  0  0  0  0  0  0
    8.2561   -6.6436    0.0000 H   0  0  0  0  0  0  0  0  0  0  0  0
    5.6058   -8.0033    0.0000 H   0  0  0  0  0  0  0  0  0  0  0  0
    9.1401   -5.0920    0.0000 H   0  0  0  0  0  0  0  0  0  0  0  0
    5.5726   -5.4803    0.0000 H   0  0  0  0  0  0  0  0  0  0  0  0
    5.1741   -6.1706    0.0000 H   0  0  0  0  0  0  0  0  0  0  0  0
    7.0492   -5.0880    0.0000 H   0  0  0  0  0  0  0  0  0  0  0  0
    6.2522   -5.0880    0.0000 H   0  0  0  0  0  0  0  0  0  0  0  0
    6.8848   -9.1849    0.0000 H   0  0  0  0  0  0  0  0  0  0  0  0
    7.2759   -8.4890    0.0000 H   0  0  0  0  0  0  0  0  0  0  0  0
    8.0060   -8.0674    0.0000 H   0  0  0  0  0  0  0  0  0  0  0  0
    8.8043   -8.0766    0.0000 H   0  0  0  0  0  0  0  0  0  0  0  0
    5.3714   -9.6082    0.0000 H   0  0  0  0  0  0  0  0  0  0  0  0
    6.1697   -9.6051    0.0000 H   0  0  0  0  0  0  0  0  0  0  0  0
    9.5258   -7.6675    0.0000 H   0  0  0  0  0  0  0  0  0  0  0  0
    9.9276   -6.9777    0.0000 H   0  0  0  0  0  0  0  0  0  0  0  0
    4.3560   -6.5391    0.0000 H   0  0  0  0  0  0  0  0  0  0  0  0
    3.5579   -6.5237    0.0000 H   0  0  0  0  0  0  0  0  0  0  0  0
    7.2067   -8.5999    0.0000 H   0  0  0  0  0  0  0  0  0  0  0  0
    8.0536   -8.3730    0.0000 H   0  0  0  0  0  0  0  0  0  0  0  0
    7.8267   -7.5260    0.0000 H   0  0  0  0  0  0  0  0  0  0  0  0
    5.2286   -6.0260    0.0000 H   0  0  0  0  0  0  0  0  0  0  0  0
    4.3817   -6.2530    0.0000 H   0  0  0  0  0  0  0  0  0  0  0  0
    4.6086   -7.0999    0.0000 H   0  0  0  0  0  0  0  0  0  0  0  0
   10.7980   -5.1979    0.0000 H   0  0  0  0  0  0  0  0  0  0  0  0
    8.1631   -3.8649    0.0000 H   0  0  0  0  0  0  0  0  0  0  0  0
    7.7773   -4.5638    0.0000 H   0  0  0  0  0  0  0  0  0  0  0  0
    3.5339   -9.6371    0.0000 H   0  0  0  0  0  0  0  0  0  0  0  0
    4.3322   -9.6340    0.0000 H   0  0  0  0  0  0  0  0  0  0  0  0
    8.1367   -5.0630    0.0000 H   0  0  0  0  0  0  0  0  0  0  0  0
    7.5167   -4.4430    0.0000 H   0  0  0  0  0  0  0  0  0  0  0  0
    6.8967   -5.0630    0.0000 H   0  0  0  0  0  0  0  0  0  0  0  0
    2.3816   -8.5078    0.0000 H   0  0  0  0  0  0  0  0  0  0  0  0
    2.7780   -9.2007    0.0000 H   0  0  0  0  0  0  0  0  0  0  0  0
    4.2389   -9.6066    0.0000 H   0  0  0  0  0  0  0  0  0  0  0  0
    4.8541  -10.2314    0.0000 H   0  0  0  0  0  0  0  0  0  0  0  0
    5.4789   -9.6162    0.0000 H   0  0  0  0  0  0  0  0  0  0  0  0
   10.2569   -3.8019    0.0000 H   0  0  0  0  0  0  0  0  0  0  0  0
    9.8807   -7.0748    0.0000 H   0  0  0  0  0  0  0  0  0  0  0  0
   10.7259   -6.8413    0.0000 H   0  0  0  0  0  0  0  0  0  0  0  0
   10.4924   -5.9961    0.0000 H   0  0  0  0  0  0  0  0  0  0  0  0
    9.7103   -3.4076    0.0000 H   0  0  0  0  0  0  0  0  0  0  0  0
    8.9121   -3.4169    0.0000 H   0  0  0  0  0  0  0  0  0  0  0  0
   10.8125   -6.5460    0.0000 H   0  0  0  0  0  0  0  0  0  0  0  0
   11.6603   -6.3223    0.0000 H   0  0  0  0  0  0  0  0  0  0  0  0
   11.4367   -5.4745    0.0000 H   0  0  0  0  0  0  0  0  0  0  0  0
    2.0072   -6.9021    0.0000 H   0  0  0  0  0  0  0  0  0  0  0  0
    1.3800   -7.5149    0.0000 H   0  0  0  0  0  0  0  0  0  0  0  0
    1.9928   -8.1421    0.0000 H   0  0  0  0  0  0  0  0  0  0  0  0
    3.0505   -6.3582    0.0000 H   0  0  0  0  0  0  0  0  0  0  0  0
    2.2062   -6.1214    0.0000 H   0  0  0  0  0  0  0  0  0  0  0  0
    1.9695   -6.9657    0.0000 H   0  0  0  0  0  0  0  0  0  0  0  0
   12.1991   -2.9970    0.0000 H   0  0  0  0  0  0  0  0  0  0  0  0
   12.5950   -2.3052    0.0000 H   0  0  0  0  0  0  0  0  0  0  0  0
   11.7667   -0.8335    0.0000 H   0  0  0  0  0  0  0  0  0  0  0  0
   11.3708   -1.5253    0.0000 H   0  0  0  0  0  0  0  0  0  0  0  0
   13.0594   -1.4937    0.0000 H   0  0  0  0  0  0  0  0  0  0  0  0
   13.4552   -0.8019    0.0000 H   0  0  0  0  0  0  0  0  0  0  0  0
   12.6269    0.6699    0.0000 H   0  0  0  0  0  0  0  0  0  0  0  0
   12.2311   -0.0219    0.0000 H   0  0  0  0  0  0  0  0  0  0  0  0
   13.9196    0.0096    0.0000 H   0  0  0  0  0  0  0  0  0  0  0  0
   14.3155    0.7014    0.0000 H   0  0  0  0  0  0  0  0  0  0  0  0
   13.4872    2.1732    0.0000 H   0  0  0  0  0  0  0  0  0  0  0  0
   13.0913    1.4814    0.0000 H   0  0  0  0  0  0  0  0  0  0  0  0
   14.7798    1.5130    0.0000 H   0  0  0  0  0  0  0  0  0  0  0  0
   15.1757    2.2048    0.0000 H   0  0  0  0  0  0  0  0  0  0  0  0
   14.3474    3.6765    0.0000 H   0  0  0  0  0  0  0  0  0  0  0  0
   13.9515    2.9847    0.0000 H   0  0  0  0  0  0  0  0  0  0  0  0
   15.6401    3.0163    0.0000 H   0  0  0  0  0  0  0  0  0  0  0  0
   16.0359    3.7081    0.0000 H   0  0  0  0  0  0  0  0  0  0  0  0
   15.2076    5.1798    0.0000 H   0  0  0  0  0  0  0  0  0  0  0  0
   14.8118    4.4880    0.0000 H   0  0  0  0  0  0  0  0  0  0  0  0
   16.5003    4.5196    0.0000 H   0  0  0  0  0  0  0  0  0  0  0  0
   16.8962    5.2114    0.0000 H   0  0  0  0  0  0  0  0  0  0  0  0
   16.0679    6.6832    0.0000 H   0  0  0  0  0  0  0  0  0  0  0  0
   15.6720    5.9914    0.0000 H   0  0  0  0  0  0  0  0  0  0  0  0
   17.3606    6.0229    0.0000 H   0  0  0  0  0  0  0  0  0  0  0  0
   17.7564    6.7147    0.0000 H   0  0  0  0  0  0  0  0  0  0  0  0
   16.9281    8.1865    0.0000 H   0  0  0  0  0  0  0  0  0  0  0  0
   16.5322    7.4947    0.0000 H   0  0  0  0  0  0  0  0  0  0  0  0
   18.2208    7.5263    0.0000 H   0  0  0  0  0  0  0  0  0  0  0  0
   18.6167    8.2181    0.0000 H   0  0  0  0  0  0  0  0  0  0  0  0
   17.7883    9.6898    0.0000 H   0  0  0  0  0  0  0  0  0  0  0  0
   17.3925    8.9980    0.0000 H   0  0  0  0  0  0  0  0  0  0  0  0
   19.1788    9.0756    0.0000 H   0  0  0  0  0  0  0  0  0  0  0  0
   19.4025    9.9234    0.0000 H   0  0  0  0  0  0  0  0  0  0  0  0
   18.5547   10.1471    0.0000 H   0  0  0  0  0  0  0  0  0  0  0  0
 27  1  1  1  0  0  0
  1 33  1  0  0  0  0
  2 33  2  0  0  0  0
  3  4  1  0  0  0  0
  3  5  1  0  0  0  0
  3 13  1  0  0  0  0
  3 18  1  6  0  0  0
  4  7  1  0  0  0  0
  4 10  1  0  0  0  0
  4 19  1  1  0  0  0
  5  6  1  0  0  0  0
  5 14  1  0  0  0  0
  5 51  1  1  0  0  0
  6  8  1  0  0  0  0
  6 12  1  0  0  0  0
  6 23  1  6  0  0  0
  7  9  1  0  0  0  0
  7 17  1  0  0  0  0
  7 52  1  6  0  0  0
  8 11  1  0  0  0  0
  8 21  1  0  0  0  0
  8 53  1  1  0  0  0
  9 15  1  0  0  0  0
  9 22  1  0  0  0  0
  9 26  1  6  0  0  0
 10 12  1  0  0  0  0
 10 54  1  0  0  0  0
 10 55  1  0  0  0  0
 11 16  1  0  0  0  0
 11 20  1  0  0  0  0
 11 28  1  6  0  0  0
 12 56  1  0  0  0  0
 12 57  1  0  0  0  0
 13 15  1  0  0  0  0
 13 58  1  0  0  0  0
 13 59  1  0  0  0  0
 14 16  1  0  0  0  0
 14 60  1  0  0  0  0
 14 61  1  0  0  0  0
 15 62  1  0  0  0  0
 15 63  1  0  0  0  0
 16 64  1  0  0  0  0
 16 65  1  0  0  0  0
 17 24  1  0  0  0  0
 17 66  1  0  0  0  0
 17 67  1  0  0  0  0
 18 68  1  0  0  0  0
 18 69  1  0  0  0  0
 18 70  1  0  0  0  0
 19 71  1  0  0  0  0
 19 72  1  0  0  0  0
 19 73  1  0  0  0  0
 20 27  1  0  0  0  0
 20 30  1  6  0  0  0
 20 74  1  0  0  0  0
 21 29  1  0  0  0  0
 21 75  1  0  0  0  0
 21 76  1  0  0  0  0
 22 25  1  0  0  0  0
 22 77  1  0  0  0  0
 22 78  1  0  0  0  0
 23 79  1  0  0  0  0
 23 80  1  0  0  0  0
 23 81  1  0  0  0  0
 24 25  1  0  0  0  0
 24 31  1  0  0  0  0
 24 32  1  0  0  0  0
 25 82  1  0  0  0  0
 25 83  1  0  0  0  0
 26 84  1  0  0  0  0
 26 85  1  0  0  0  0
 26 86  1  0  0  0  0
 27 29  1  0  0  0  0
 27 87  1  0  0  0  0
 28 88  1  0  0  0  0
 28 89  1  0  0  0  0
 28 90  1  0  0  0  0
 29 91  1  0  0  0  0
 29 92  1  0  0  0  0
 30 93  1  0  0  0  0
 30 94  1  0  0  0  0
 30 95  1  0  0  0  0
 31 96  1  0  0  0  0
 31 97  1  0  0  0  0
 31 98  1  0  0  0  0
 32 99  1  0  0  0  0
 32100  1  0  0  0  0
 32101  1  0  0  0  0
 33 34  1  0  0  0  0
 34 35  1  0  0  0  0
 34102  1  0  0  0  0
 34103  1  0  0  0  0
 35 36  1  0  0  0  0
 35104  1  0  0  0  0
 35105  1  0  0  0  0
 36 37  1  0  0  0  0
 36106  1  0  0  0  0
 36107  1  0  0  0  0
 37 38  1  0  0  0  0
 37108  1  0  0  0  0
 37109  1  0  0  0  0
 38 39  1  0  0  0  0
 38110  1  0  0  0  0
 38111  1  0  0  0  0
 39 40  1  0  0  0  0
 39112  1  0  0  0  0
 39113  1  0  0  0  0
 40 41  1  0  0  0  0
 40114  1  0  0  0  0
 40115  1  0  0  0  0
 41 42  1  0  0  0  0
 41116  1  0  0  0  0
 41117  1  0  0  0  0
 42 43  1  0  0  0  0
 42118  1  0  0  0  0
 42119  1  0  0  0  0
 43 44  1  0  0  0  0
 43120  1  0  0  0  0
 43121  1  0  0  0  0
 44 45  1  0  0  0  0
 44122  1  0  0  0  0
 44123  1  0  0  0  0
 45 46  1  0  0  0  0
 45124  1  0  0  0  0
 45125  1  0  0  0  0
 46 47  1  0  0  0  0
 46126  1  0  0  0  0
 46127  1  0  0  0  0
 47 48  1  0  0  0  0
 47128  1  0  0  0  0
 47129  1  0  0  0  0
 48 49  1  0  0  0  0
 48130  1  0  0  0  0
 48131  1  0  0  0  0
 49 50  1  0  0  0  0
 49132  1  0  0  0  0
 49133  1  0  0  0  0
 50134  1  0  0  0  0
 50135  1  0  0  0  0
 50136  1  0  0  0  0
M  END
> <PUBCHEM_COMPOUND_CID>
102076594

> <PUBCHEM_COMPOUND_CANONICALIZED>
1

> <PUBCHEM_CACTVS_COMPLEXITY>
1090

> <PUBCHEM_CACTVS_HBOND_ACCEPTOR>
2

> <PUBCHEM_CACTVS_HBOND_DONOR>
0

> <PUBCHEM_CACTVS_ROTATABLE_BOND>
18

> <PUBCHEM_CACTVS_SUBSKEYS>
AAADcfB8MAAAAAAAAAAAAAAAAAAAAAAAAAAwYMGDAAAAAADAAAAAGgAAAAAADxSggAICCAAABAAIAACQCAAAAAAAAAAAAAEAAAAAABIAAAACAAAEAAAAAAGIyPCPgAAAAAAAAADAAAYAADAAAAAAAAAAAA==

> <PUBCHEM_IUPAC_OPENEYE_NAME>
[(3R,4R,4aS,6aS,6aS,6bR,8aR,12aR,14aS,14bS)-4,4a,6a,6b,8a,11,11,14a-octamethyl-1,2,3,4,5,6,6a,7,8,9,10,12,12a,13,14,14b-hexadecahydropicen-3-yl] octadecanoate

> <PUBCHEM_IUPAC_CAS_NAME>
octadecanoic acid [(3R,4R,4aS,6aS,6aS,6bR,8aR,12aR,14aS,14bS)-4,4a,6a,6b,8a,11,11,14a-octamethyl-1,2,3,4,5,6,6a,7,8,9,10,12,12a,13,14,14b-hexadecahydropicen-3-yl] ester

> <PUBCHEM_IUPAC_NAME_MARKUP>
[(3<I>R</I>,4<I>R</I>,4<I>a</I><I>S</I>,6<I>a</I><I>S</I>,6<I>a</I><I>S</I>,6<I>b</I><I>R</I>,8<I>a</I><I>R</I>,12<I>a</I><I>R</I>,14<I>a</I><I>S</I>,14<I>b</I><I>S</I>)-4,4<I>a</I>,6<I>a</I>,6<I>b</I>,8<I>a</I>,11,11,14<I>a</I>-octamethyl-1,2,3,4,5,6,6<I>a</I>,7,8,9,10,12,12<I>a</I>,13,14,14<I>b</I>-hexadecahydropicen-3-yl] octadecanoate

> <PUBCHEM_IUPAC_NAME>
[(3R,4R,4aS,6aS,6aS,6bR,8aR,12aR,14aS,14bS)-4,4a,6a,6b,8a,11,11,14a-octamethyl-1,2,3,4,5,6,6a,7,8,9,10,12,12a,13,14,14b-hexadecahydropicen-3-yl] octadecanoate

> <PUBCHEM_IUPAC_SYSTEMATIC_NAME>
[(3R,4R,4aS,6aS,6aS,6bR,8aR,12aR,14aS,14bS)-4,4a,6a,6b,8a,11,11,14a-octamethyl-1,2,3,4,5,6,6a,7,8,9,10,12,12a,13,14,14b-hexadecahydropicen-3-yl] octadecanoate

> <PUBCHEM_IUPAC_TRADITIONAL_NAME>
stearic acid [(3R,4R,4aS,6aS,6aS,6bR,8aR,12aR,14aS,14bS)-4,4a,6a,6b,8a,11,11,14a-octamethyl-1,2,3,4,5,6,6a,7,8,9,10,12,12a,13,14,14b-hexadecahydropicen-3-yl] ester

> <PUBCHEM_IUPAC_INCHI>
InChI=1S/C48H86O2/c1-10-11-12-13-14-15-16-17-18-19-20-21-22-23-24-25-42(49)50-38-26-27-39-45(6,37(38)2)29-28-40-46(39,7)33-35-48(9)41-36-43(3,4)30-31-44(41,5)32-34-47(40,48)8/h37-41H,10-36H2,1-9H3/t37-,38+,39+,40-,41+,44+,45+,46-,47+,48-/m0/s1

> <PUBCHEM_IUPAC_INCHIKEY>
IHKQMHGHIOYZTI-JPPXLXGHSA-N

> <PUBCHEM_XLOGP3_AA>
19.1

> <PUBCHEM_EXACT_MASS>
694.662782

> <PUBCHEM_MOLECULAR_FORMULA>
C48H86O2

> <PUBCHEM_MOLECULAR_WEIGHT>
695.2

> <PUBCHEM_OPENEYE_CAN_SMILES>
CCCCCCCCCCCCCCCCCC(=O)OC1CCC2C(C1C)(CCC3C2(CCC4(C3(CCC5(C4CC(CC5)(C)C)C)C)C)C)C

> <PUBCHEM_OPENEYE_ISO_SMILES>
CCCCCCCCCCCCCCCCCC(=O)O[C@@H]1CC[C@@H]2[C@@]([C@H]1C)(CC[C@H]3[C@]2(CC[C@@]4([C@@]3(CC[C@@]5([C@H]4CC(CC5)(C)C)C)C)C)C)C

> <PUBCHEM_CACTVS_TPSA>
26.3

> <PUBCHEM_MONOISOTOPIC_WEIGHT>
694.662782

> <PUBCHEM_TOTAL_CHARGE>
0

> <PUBCHEM_HEAVY_ATOM_COUNT>
50

> <PUBCHEM_ATOM_DEF_STEREO_COUNT>
10

> <PUBCHEM_ATOM_UDEF_STEREO_COUNT>
0

> <PUBCHEM_BOND_DEF_STEREO_COUNT>
0

> <PUBCHEM_BOND_UDEF_STEREO_COUNT>
0

> <PUBCHEM_ISOTOPIC_ATOM_COUNT>
0

> <PUBCHEM_COMPONENT_COUNT>
1

> <PUBCHEM_CACTVS_TAUTO_COUNT>
-1

> <PUBCHEM_COORDINATE_TYPE>
1
5
255

> <PUBCHEM_BONDANNOTATIONS>
27  1  5
11  28  6
20  30  6
3  18  6
4  19  5
5  51  5
6  23  6
7  52  6
8  53  5
9  26  6

$$$$
