5352709
  -OEChem-09082011313D

 47 46  0     0  0  0  0  0  0999 V2000
   -1.6262    1.2206    0.5501 C   0  0  0  0  0  0  0  0  0  0  0  0
   -0.4485    1.8204   -0.2255 C   0  0  0  0  0  0  0  0  0  0  0  0
   -2.8404    0.9168   -0.3364 C   0  0  0  0  0  0  0  0  0  0  0  0
    1.6544   -1.8924   -0.4103 C   0  0  0  0  0  0  0  0  0  0  0  0
    0.7568    2.1209    0.6721 C   0  0  0  0  0  0  0  0  0  0  0  0
    0.5376   -2.5335    0.4209 C   0  0  0  0  0  0  0  0  0  0  0  0
    3.0421   -1.8761    0.2403 C   0  0  0  0  0  0  0  0  0  0  0  0
   -4.0424    0.3087    0.3940 C   0  0  0  0  0  0  0  0  0  0  0  0
   -0.8185   -2.5428   -0.2848 C   0  0  0  0  0  0  0  0  0  0  0  0
    1.9141    2.6980   -0.0916 C   0  0  0  0  0  0  0  0  0  0  0  0
    4.0800   -1.1858   -0.5971 C   0  0  0  0  0  0  0  0  0  0  0  0
    3.7521    1.0347    0.5263 C   0  0  0  0  0  0  0  0  0  0  0  0
    3.1761    2.2460   -0.1476 C   0  0  0  0  0  0  0  0  0  0  0  0
   -1.8869   -3.1957    0.5792 C   0  0  0  0  0  0  0  0  0  0  0  0
    4.3953    0.1118   -0.4684 C   0  0  0  0  0  0  0  0  0  0  0  0
   -5.2241    0.0914   -0.5051 C   0  0  0  0  0  0  0  0  0  0  0  0
   -6.4214    0.6571   -0.3160 C   0  0  0  0  0  0  0  0  0  0  0  0
   -1.9288    1.9188    1.3403 H   0  0  0  0  0  0  0  0  0  0  0  0
   -1.3038    0.3006    1.0512 H   0  0  0  0  0  0  0  0  0  0  0  0
   -0.7762    2.7433   -0.7208 H   0  0  0  0  0  0  0  0  0  0  0  0
   -0.1497    1.1253   -1.0200 H   0  0  0  0  0  0  0  0  0  0  0  0
   -3.1565    1.8512   -0.8194 H   0  0  0  0  0  0  0  0  0  0  0  0
   -2.5347    0.2450   -1.1481 H   0  0  0  0  0  0  0  0  0  0  0  0
    1.7216   -2.4173   -1.3725 H   0  0  0  0  0  0  0  0  0  0  0  0
    1.3590   -0.8623   -0.6454 H   0  0  0  0  0  0  0  0  0  0  0  0
    0.8259   -3.5626    0.6681 H   0  0  0  0  0  0  0  0  0  0  0  0
    0.4485   -1.9925    1.3711 H   0  0  0  0  0  0  0  0  0  0  0  0
    1.0349    1.2085    1.2068 H   0  0  0  0  0  0  0  0  0  0  0  0
    0.4601    2.8491    1.4369 H   0  0  0  0  0  0  0  0  0  0  0  0
    2.9844   -1.4713    1.2551 H   0  0  0  0  0  0  0  0  0  0  0  0
    3.3724   -2.9140    0.3804 H   0  0  0  0  0  0  0  0  0  0  0  0
   -1.1168   -1.5220   -0.5341 H   0  0  0  0  0  0  0  0  0  0  0  0
   -0.7375   -3.0924   -1.2298 H   0  0  0  0  0  0  0  0  0  0  0  0
   -3.7530   -0.6568    0.8248 H   0  0  0  0  0  0  0  0  0  0  0  0
   -4.3157    0.9570    1.2358 H   0  0  0  0  0  0  0  0  0  0  0  0
    1.6950    3.6116   -0.6427 H   0  0  0  0  0  0  0  0  0  0  0  0
    4.5905   -1.7785   -1.3512 H   0  0  0  0  0  0  0  0  0  0  0  0
    4.5380    1.3802    1.2102 H   0  0  0  0  0  0  0  0  0  0  0  0
    3.0106    0.5497    1.1582 H   0  0  0  0  0  0  0  0  0  0  0  0
    3.8782    2.8326   -0.7398 H   0  0  0  0  0  0  0  0  0  0  0  0
   -1.6261   -4.2336    0.8094 H   0  0  0  0  0  0  0  0  0  0  0  0
   -2.0123   -2.6547    1.5225 H   0  0  0  0  0  0  0  0  0  0  0  0
   -2.8486   -3.1947    0.0565 H   0  0  0  0  0  0  0  0  0  0  0  0
    5.1705    0.5215   -1.1118 H   0  0  0  0  0  0  0  0  0  0  0  0
   -5.0905   -0.5772   -1.3515 H   0  0  0  0  0  0  0  0  0  0  0  0
   -7.2384    0.4547   -1.0000 H   0  0  0  0  0  0  0  0  0  0  0  0
   -6.6078    1.3270    0.5160 H   0  0  0  0  0  0  0  0  0  0  0  0
  1  2  1  0  0  0  0
  1  3  1  0  0  0  0
  1 18  1  0  0  0  0
  1 19  1  0  0  0  0
  2  5  1  0  0  0  0
  2 20  1  0  0  0  0
  2 21  1  0  0  0  0
  3  8  1  0  0  0  0
  3 22  1  0  0  0  0
  3 23  1  0  0  0  0
  4  6  1  0  0  0  0
  4  7  1  0  0  0  0
  4 24  1  0  0  0  0
  4 25  1  0  0  0  0
  5 10  1  0  0  0  0
  5 28  1  0  0  0  0
  5 29  1  0  0  0  0
  6  9  1  0  0  0  0
  6 26  1  0  0  0  0
  6 27  1  0  0  0  0
  7 11  1  0  0  0  0
  7 30  1  0  0  0  0
  7 31  1  0  0  0  0
  8 16  1  0  0  0  0
  8 34  1  0  0  0  0
  8 35  1  0  0  0  0
  9 14  1  0  0  0  0
  9 32  1  0  0  0  0
  9 33  1  0  0  0  0
 10 13  2  0  0  0  0
 10 36  1  0  0  0  0
 11 15  2  0  0  0  0
 11 37  1  0  0  0  0
 12 13  1  0  0  0  0
 12 15  1  0  0  0  0
 12 38  1  0  0  0  0
 12 39  1  0  0  0  0
 13 40  1  0  0  0  0
 14 41  1  0  0  0  0
 14 42  1  0  0  0  0
 14 43  1  0  0  0  0
 15 44  1  0  0  0  0
 16 17  2  0  0  0  0
 16 45  1  0  0  0  0
 17 46  1  0  0  0  0
 17 47  1  0  0  0  0
M  END
> <PUBCHEM_COMPOUND_CID>
5352709

> <PUBCHEM_CONFORMER_RMSD>
1.2

> <PUBCHEM_CONFORMER_DIVERSEORDER>
1
168
10
551
745
454
90
21
18
318
4
295
65
135
665
444
400
538
20
28
660
30
269
24
176
54
40
698
151
218
59
227
63
106
71
170
29
484
410
490
616
13
512
88
572
200
44
84
7
647
27
161
684
687
322
155
654
17
505
403
122
404
556
5
345
55
333
93
353
627
100
515
662
217
177
2
391
311
604
302
75
142
564
544
191
243
442
738
8
635
3
101
43
492
179
378
630
45
775
501
355
76
94
760
583
50
569
691
34
253
372
211
33
401
15
726
9
81
11
362
36
778
207
532

> <PUBCHEM_MMFF94_PARTIAL_CHARGES>
17
10 -0.29
11 -0.29
12 0.28
13 -0.29
15 -0.29
16 -0.29
17 -0.3
36 0.15
37 0.15
40 0.15
44 0.15
45 0.15
46 0.15
47 0.15
5 0.14
7 0.14
8 0.14

> <PUBCHEM_EFFECTIVE_ROTOR_COUNT>
12

> <PUBCHEM_PHARMACOPHORE_FEATURES>
3
1 14 hydrophobe
1 17 hydrophobe
5 4 6 7 9 11 hydrophobe

> <PUBCHEM_HEAVY_ATOM_COUNT>
17

> <PUBCHEM_ATOM_DEF_STEREO_COUNT>
0

> <PUBCHEM_ATOM_UDEF_STEREO_COUNT>
0

> <PUBCHEM_BOND_DEF_STEREO_COUNT>
2

> <PUBCHEM_BOND_UDEF_STEREO_COUNT>
0

> <PUBCHEM_ISOTOPIC_ATOM_COUNT>
0

> <PUBCHEM_COMPONENT_COUNT>
1

> <PUBCHEM_CACTVS_TAUTO_COUNT>
1

> <PUBCHEM_CONFORMER_ID>
0051AD0500000001

> <PUBCHEM_MMFF94_ENERGY>
2.2683

> <PUBCHEM_FEATURE_SELFOVERLAP>
15.223

> <PUBCHEM_SHAPE_FINGERPRINT>
108634 29 18341061743932711278
12011746 2 18410301285214978142
12596599 1 17271178509728906930
12838862 33 18339061758104337640
13402501 40 18409168809296460663
13533116 47 18202844374587740681
13836976 161 18334297591184801828
14251717 144 18411419488171394816
14931854 50 18339370664883720108
15110567 62 18337110073066341891
17093844 170 18339919419991696944
17492 54 18261970565347586236
20645477 70 18334573559686586097
23227448 37 18339924913044079727
23558518 356 17684362141457739720
23596394 208 18115014217682577813
2871803 45 18337954493627848332
3014063 31 18411419483886847068
33824 294 18410853265917286528
338550 245 18190463951094293311
3680242 22 18335699382241449619
59755656 215 18261386716458355781

> <PUBCHEM_SHAPE_MULTIPOLES>
349.85
11.01
3.89
0.8
13.53
1.75
0.02
-2.35
-1.86
-1.72
0.42
-0.02
0.03
0.44

> <PUBCHEM_SHAPE_SELFOVERLAP>
638.359

> <PUBCHEM_SHAPE_VOLUME>
218.8

> <PUBCHEM_COORDINATE_TYPE>
2
5
10

$$$$
