486612
  -OEChem-09082009423D

 69 72  0     1  0  0  0  0  0999 V2000
   -6.3264   -0.1080   -0.3937 O   0  0  0  0  0  0  0  0  0  0  0  0
    3.1617   -0.4791   -1.4088 O   0  0  0  0  0  0  0  0  0  0  0  0
    2.0627   -2.2933   -0.4370 O   0  0  0  0  0  0  0  0  0  0  0  0
    6.2300   -0.7148    1.3109 O   0  0  0  0  0  0  0  0  0  0  0  0
    5.8712    1.6938   -0.2466 O   0  0  0  0  0  0  0  0  0  0  0  0
    3.6257   -1.9610    1.8985 O   0  0  0  0  0  0  0  0  0  0  0  0
   -5.5946   -0.0823   -2.5649 O   0  0  0  0  0  0  0  0  0  0  0  0
    2.8375    1.5854   -3.1945 O   0  0  0  0  0  0  0  0  0  0  0  0
    0.4327   -2.5380    1.8050 O   0  0  0  0  0  0  0  0  0  0  0  0
    0.4050    2.7595   -0.6862 O   0  0  0  0  0  0  0  0  0  0  0  0
    1.4166    2.7100    1.9026 O   0  0  0  0  0  0  0  0  0  0  0  0
   -4.2652    0.0363    0.7144 C   0  0  2  0  0  0  0  0  0  0  0  0
   -4.0054   -0.3285   -0.7433 C   0  0  1  0  0  0  0  0  0  0  0  0
   -5.7269   -0.3254    0.8882 C   0  0  0  0  0  0  0  0  0  0  0  0
   -3.5407   -1.7670   -0.9233 C   0  0  0  0  0  0  0  0  0  0  0  0
    4.9656   -0.2707    0.8164 C   0  0  1  0  0  0  0  0  0  0  0  0
   -4.0375    1.5304    0.9610 C   0  0  0  0  0  0  0  0  0  0  0  0
    5.2050    0.4606   -0.5046 C   0  0  1  0  0  0  0  0  0  0  0  0
    4.0434   -1.4746    0.6232 C   0  0  2  0  0  0  0  0  0  0  0  0
    3.8802    0.7409   -1.2180 C   0  0  1  0  0  0  0  0  0  0  0  0
    2.7968   -1.0972   -0.1771 C   0  0  1  0  0  0  0  0  0  0  0  0
   -5.3667   -0.1510   -1.3665 C   0  0  0  0  0  0  0  0  0  0  0  0
   -2.0618   -1.9062   -0.7912 C   0  0  0  0  0  0  0  0  0  0  0  0
   -2.5845    1.8448    1.2081 C   0  0  0  0  0  0  0  0  0  0  0  0
    4.1000    1.3652   -2.5924 C   0  0  0  0  0  0  0  0  0  0  0  0
    0.7048   -2.1672   -0.5447 C   0  0  0  0  0  0  0  0  0  0  0  0
   -1.4936   -2.1597    0.4572 C   0  0  0  0  0  0  0  0  0  0  0  0
   -1.2467   -1.7831   -1.9164 C   0  0  0  0  0  0  0  0  0  0  0  0
   -0.1104   -2.2904    0.5805 C   0  0  0  0  0  0  0  0  0  0  0  0
    0.1366   -1.9135   -1.7931 C   0  0  0  0  0  0  0  0  0  0  0  0
   -1.7473    2.1607    0.1381 C   0  0  0  0  0  0  0  0  0  0  0  0
   -2.0769    1.8200    2.5071 C   0  0  0  0  0  0  0  0  0  0  0  0
   -0.4025    2.4522    0.3670 C   0  0  0  0  0  0  0  0  0  0  0  0
   -0.7320    2.1111    2.7359 C   0  0  0  0  0  0  0  0  0  0  0  0
    0.1052    2.4272    1.6659 C   0  0  0  0  0  0  0  0  0  0  0  0
   -0.4698   -2.6499    2.9037 C   0  0  0  0  0  0  0  0  0  0  0  0
   -0.1921    2.7629   -1.9815 C   0  0  0  0  0  0  0  0  0  0  0  0
   -3.6628   -0.5347    1.4274 H   0  0  0  0  0  0  0  0  0  0  0  0
   -3.3260    0.3659   -1.2423 H   0  0  0  0  0  0  0  0  0  0  0  0
   -6.2424    0.2811    1.6387 H   0  0  0  0  0  0  0  0  0  0  0  0
   -5.8600   -1.3813    1.1486 H   0  0  0  0  0  0  0  0  0  0  0  0
   -3.8371   -2.1389   -1.9141 H   0  0  0  0  0  0  0  0  0  0  0  0
   -4.0460   -2.4423   -0.2200 H   0  0  0  0  0  0  0  0  0  0  0  0
    4.5641    0.4124    1.5741 H   0  0  0  0  0  0  0  0  0  0  0  0
    5.8640   -0.1395   -1.1439 H   0  0  0  0  0  0  0  0  0  0  0  0
   -4.6051    1.8568    1.8429 H   0  0  0  0  0  0  0  0  0  0  0  0
   -4.4189    2.1430    0.1335 H   0  0  0  0  0  0  0  0  0  0  0  0
    4.5804   -2.2949    0.1324 H   0  0  0  0  0  0  0  0  0  0  0  0
    3.2534    1.4262   -0.6311 H   0  0  0  0  0  0  0  0  0  0  0  0
    2.1721   -0.4045    0.4059 H   0  0  0  0  0  0  0  0  0  0  0  0
    4.6656    0.6890   -3.2421 H   0  0  0  0  0  0  0  0  0  0  0  0
    4.6259    2.3217   -2.5195 H   0  0  0  0  0  0  0  0  0  0  0  0
   -2.1737   -2.2607    1.2953 H   0  0  0  0  0  0  0  0  0  0  0  0
   -1.6764   -1.5825   -2.8942 H   0  0  0  0  0  0  0  0  0  0  0  0
    6.6049   -1.3387    0.6661 H   0  0  0  0  0  0  0  0  0  0  0  0
    5.2884    2.2395    0.3087 H   0  0  0  0  0  0  0  0  0  0  0  0
    3.1356   -1.2505    2.3466 H   0  0  0  0  0  0  0  0  0  0  0  0
    0.7651   -1.8161   -2.6741 H   0  0  0  0  0  0  0  0  0  0  0  0
   -2.1960    2.1897   -0.8476 H   0  0  0  0  0  0  0  0  0  0  0  0
   -2.7179    1.5721    3.3489 H   0  0  0  0  0  0  0  0  0  0  0  0
    3.0006    1.9821   -4.0672 H   0  0  0  0  0  0  0  0  0  0  0  0
   -0.3492    2.0865    3.7527 H   0  0  0  0  0  0  0  0  0  0  0  0
    0.1336   -2.8420    3.7971 H   0  0  0  0  0  0  0  0  0  0  0  0
   -1.1448   -3.5046    2.7867 H   0  0  0  0  0  0  0  0  0  0  0  0
   -1.0084   -1.7124    3.0809 H   0  0  0  0  0  0  0  0  0  0  0  0
    1.5886    2.6397    2.8573 H   0  0  0  0  0  0  0  0  0  0  0  0
    0.5865    3.0471   -2.6961 H   0  0  0  0  0  0  0  0  0  0  0  0
   -0.9796    3.5200   -2.0623 H   0  0  0  0  0  0  0  0  0  0  0  0
   -0.5408    1.7643   -2.2664 H   0  0  0  0  0  0  0  0  0  0  0  0
  1 14  1  0  0  0  0
  1 22  1  0  0  0  0
  2 20  1  0  0  0  0
  2 21  1  0  0  0  0
  3 21  1  0  0  0  0
  3 26  1  0  0  0  0
  4 16  1  0  0  0  0
  4 55  1  0  0  0  0
  5 18  1  0  0  0  0
  5 56  1  0  0  0  0
  6 19  1  0  0  0  0
  6 57  1  0  0  0  0
  7 22  2  0  0  0  0
  8 25  1  0  0  0  0
  8 61  1  0  0  0  0
  9 29  1  0  0  0  0
  9 36  1  0  0  0  0
 10 33  1  0  0  0  0
 10 37  1  0  0  0  0
 11 35  1  0  0  0  0
 11 66  1  0  0  0  0
 12 13  1  0  0  0  0
 12 14  1  0  0  0  0
 12 17  1  0  0  0  0
 12 38  1  0  0  0  0
 13 15  1  0  0  0  0
 13 22  1  0  0  0  0
 13 39  1  0  0  0  0
 14 40  1  0  0  0  0
 14 41  1  0  0  0  0
 15 23  1  0  0  0  0
 15 42  1  0  0  0  0
 15 43  1  0  0  0  0
 16 18  1  0  0  0  0
 16 19  1  0  0  0  0
 16 44  1  0  0  0  0
 17 24  1  0  0  0  0
 17 46  1  0  0  0  0
 17 47  1  0  0  0  0
 18 20  1  0  0  0  0
 18 45  1  0  0  0  0
 19 21  1  0  0  0  0
 19 48  1  0  0  0  0
 20 25  1  0  0  0  0
 20 49  1  0  0  0  0
 21 50  1  0  0  0  0
 23 27  2  0  0  0  0
 23 28  1  0  0  0  0
 24 31  2  0  0  0  0
 24 32  1  0  0  0  0
 25 51  1  0  0  0  0
 25 52  1  0  0  0  0
 26 29  2  0  0  0  0
 26 30  1  0  0  0  0
 27 29  1  0  0  0  0
 27 53  1  0  0  0  0
 28 30  2  0  0  0  0
 28 54  1  0  0  0  0
 30 58  1  0  0  0  0
 31 33  1  0  0  0  0
 31 59  1  0  0  0  0
 32 34  2  0  0  0  0
 32 60  1  0  0  0  0
 33 35  2  0  0  0  0
 34 35  1  0  0  0  0
 34 62  1  0  0  0  0
 36 63  1  0  0  0  0
 36 64  1  0  0  0  0
 36 65  1  0  0  0  0
 37 67  1  0  0  0  0
 37 68  1  0  0  0  0
 37 69  1  0  0  0  0
M  END
> <PUBCHEM_COMPOUND_CID>
486612

> <PUBCHEM_CONFORMER_RMSD>
1.2

> <PUBCHEM_CONFORMER_DIVERSEORDER>
1
129
117
166
40
246
43
170
164
196
195
106
171
72
236
74
205
160
144
244
209
124
85
187
75
154
48
189
161
90
183
13
29
53
12
136
235
156
228
221
226
69
101
155
130
172
240
133
50
54
95
18
138
49
83
86
109
96
114
42
158
163
194
230
167
116
77
211
177
208
223
201
145
247
56
46
181
206
200
17
107
100
185
152
202
113
70
203
225
169
243
98
220
105
82
47
180
134
193
137
127
186
128
97
214
232
63
118
93
204
149
159
233
52
150
10
140
179
213
91
238
229
237
212
22
215
147
66
131
239
234
55
99
64
39
61
231
103
51
173
178
88
143
23
198
4
25
218
224
141
175
87
242
139
125
219
57
197
168
92
78
191
7
59
153
199
19
68
216
151
217
248
222
165
14
148
33
108
44
210
38
142
182
176
16
135
184
37
58
15
249
115
81
71
6
132
227
80
245
30
41
121
34
174
146
207
110
5
122
119
241
67
26
112
84
62
126
2
120
188
157
24
31
94
60
45
102
65
32
27
36
111
9
79
89
35
3
162
20
28
11
73
8
190
192
21
104
76
123

> <PUBCHEM_MMFF94_PARTIAL_CHARGES>
47
1 -0.43
10 -0.36
11 -0.53
13 0.06
14 0.28
15 0.14
16 0.28
17 0.14
18 0.28
19 0.28
2 -0.56
20 0.28
21 0.56
22 0.66
23 -0.14
24 -0.14
25 0.28
26 0.08
27 -0.15
28 -0.15
29 0.08
3 -0.36
30 -0.15
31 -0.15
32 -0.15
33 0.08
34 -0.15
35 0.08
36 0.28
37 0.28
4 -0.68
5 -0.68
53 0.15
54 0.15
55 0.4
56 0.4
57 0.4
58 0.15
59 0.15
6 -0.68
60 0.15
61 0.4
62 0.15
66 0.45
7 -0.57
8 -0.68
9 -0.36

> <PUBCHEM_EFFECTIVE_ROTOR_COUNT>
11

> <PUBCHEM_PHARMACOPHORE_FEATURES>
18
1 10 acceptor
1 11 donor
1 2 acceptor
1 3 acceptor
1 4 acceptor
1 4 donor
1 5 acceptor
1 5 donor
1 6 acceptor
1 6 donor
1 7 acceptor
1 8 acceptor
1 8 donor
1 9 acceptor
5 1 12 13 14 22 rings
6 2 16 18 19 20 21 rings
6 23 26 27 28 29 30 rings
6 24 31 32 33 34 35 rings

> <PUBCHEM_HEAVY_ATOM_COUNT>
37

> <PUBCHEM_ATOM_DEF_STEREO_COUNT>
7

> <PUBCHEM_ATOM_UDEF_STEREO_COUNT>
0

> <PUBCHEM_BOND_DEF_STEREO_COUNT>
0

> <PUBCHEM_BOND_UDEF_STEREO_COUNT>
0

> <PUBCHEM_ISOTOPIC_ATOM_COUNT>
0

> <PUBCHEM_COMPONENT_COUNT>
1

> <PUBCHEM_CACTVS_TAUTO_COUNT>
6

> <PUBCHEM_CONFORMER_ID>
00076CD400000001

> <PUBCHEM_MMFF94_ENERGY>
123.122

> <PUBCHEM_FEATURE_SELFOVERLAP>
91.422

> <PUBCHEM_SHAPE_FINGERPRINT>
10670039 82 18130239163855855206
11479125 193 16880774121465299028
11513181 2 17488193603622767775
11578080 2 17678442079719086669
12156800 1 12374826108828905273
12788726 201 18342748416012323888
13642711 20 15864064416379356696
13947920 75 18200614565470425884
14394314 77 18201730535318571145
14705955 166 15357963547640777006
14840074 17 18411428310197829033
15001296 14 18270682098558343992
15297060 5 17488482792170772130
17492 54 18411983559511914633
18336668 15 18413384337447364905
19319366 153 18334568031984795507
20764821 26 18058719342699673280
35225 105 18201159854365429140
392239 28 17775566407690932680
469060 322 18041846107872564501
5265222 85 17044564112295318361
6287921 2 17410802179704157231

> <PUBCHEM_SHAPE_MULTIPOLES>
696.88
11.99
3.71
2.84
2.06
0.85
-0.13
-0.04
-2.66
-0.04
1.08
0.62
0.46
-2.23

> <PUBCHEM_SHAPE_SELFOVERLAP>
1489.687

> <PUBCHEM_SHAPE_VOLUME>
384.8

> <PUBCHEM_COORDINATE_TYPE>
2
5
10

$$$$
