323896
  -OEChem-09082009353D

 74 77  0     1  0  0  0  0  0999 V2000
   -4.9161   -3.7023    1.2027 O   0  0  0  0  0  0  0  0  0  0  0  0
   -6.4457   -2.7424   -0.2076 O   0  0  0  0  0  0  0  0  0  0  0  0
    3.1961   -1.9497   -1.7629 O   0  0  0  0  0  0  0  0  0  0  0  0
   -1.4613    0.6733   -3.5323 O   0  0  0  0  0  0  0  0  0  0  0  0
    1.0673    1.1336   -2.5100 O   0  0  0  0  0  0  0  0  0  0  0  0
    1.2552    1.2716    1.3639 O   0  0  0  0  0  0  0  0  0  0  0  0
   -1.3733    2.8380    1.9469 O   0  0  0  0  0  0  0  0  0  0  0  0
   -2.4606    4.4990    0.0012 O   0  0  0  0  0  0  0  0  0  0  0  0
    6.6625   -1.4804    2.0335 O   0  0  0  0  0  0  0  0  0  0  0  0
    8.3620    0.3490    0.8121 O   0  0  0  0  0  0  0  0  0  0  0  0
   -3.1425   -2.1911    0.9399 C   0  0  2  0  0  0  0  0  0  0  0  0
   -4.4072   -1.5547    0.3735 C   0  0  2  0  0  0  0  0  0  0  0  0
   -2.2690   -2.7749   -0.1742 C   0  0  0  0  0  0  0  0  0  0  0  0
   -3.6956   -3.2890    1.8268 C   0  0  0  0  0  0  0  0  0  0  0  0
   -4.9392   -0.4182    1.2354 C   0  0  0  0  0  0  0  0  0  0  0  0
   -5.3811   -2.7057    0.3904 C   0  0  0  0  0  0  0  0  0  0  0  0
   -1.3779   -1.7307   -0.7959 C   0  0  0  0  0  0  0  0  0  0  0  0
   -4.2749    0.8944    0.9085 C   0  0  0  0  0  0  0  0  0  0  0  0
    2.0740   -0.3179   -0.2784 C   0  0  1  0  0  0  0  0  0  0  0  0
   -0.1128   -1.5130   -0.2704 C   0  0  0  0  0  0  0  0  0  0  0  0
    0.7124   -0.5475   -0.8469 C   0  0  0  0  0  0  0  0  0  0  0  0
   -1.8362   -1.0047   -1.8854 C   0  0  0  0  0  0  0  0  0  0  0  0
    3.2188   -0.5940   -1.3103 C   0  0  1  0  0  0  0  0  0  0  0  0
    0.2634    0.1894   -1.9427 C   0  0  0  0  0  0  0  0  0  0  0  0
   -1.0109   -0.0393   -2.4621 C   0  0  0  0  0  0  0  0  0  0  0  0
    2.2135    1.1074    0.3227 C   0  0  0  0  0  0  0  0  0  0  0  0
   -3.1214    1.2620    1.5854 C   0  0  0  0  0  0  0  0  0  0  0  0
   -4.8274    1.7141   -0.0644 C   0  0  0  0  0  0  0  0  0  0  0  0
    4.5995   -0.3431   -0.7374 C   0  0  0  0  0  0  0  0  0  0  0  0
   -2.5062    2.4768    1.2825 C   0  0  0  0  0  0  0  0  0  0  0  0
   -4.2125    2.9291   -0.3671 C   0  0  0  0  0  0  0  0  0  0  0  0
   -3.0519    3.3104    0.3062 C   0  0  0  0  0  0  0  0  0  0  0  0
    4.9950   -1.0340    0.3932 C   0  0  0  0  0  0  0  0  0  0  0  0
    5.4301    0.5709   -1.3595 C   0  0  0  0  0  0  0  0  0  0  0  0
    6.2658   -0.8032    0.9201 C   0  0  0  0  0  0  0  0  0  0  0  0
    6.7007    0.8019   -0.8325 C   0  0  0  0  0  0  0  0  0  0  0  0
   -2.1530    1.8896   -3.2563 C   0  0  0  0  0  0  0  0  0  0  0  0
    7.1187    0.1148    0.3073 C   0  0  0  0  0  0  0  0  0  0  0  0
   -1.5380    3.5873    3.1492 C   0  0  0  0  0  0  0  0  0  0  0  0
    6.3798   -0.8766    3.2944 C   0  0  0  0  0  0  0  0  0  0  0  0
   -2.5352   -1.5106    1.5438 H   0  0  0  0  0  0  0  0  0  0  0  0
   -4.2948   -1.2366   -0.6654 H   0  0  0  0  0  0  0  0  0  0  0  0
   -1.6265   -3.5698    0.2282 H   0  0  0  0  0  0  0  0  0  0  0  0
   -2.8725   -3.2635   -0.9506 H   0  0  0  0  0  0  0  0  0  0  0  0
   -3.0283   -4.1500    1.9270 H   0  0  0  0  0  0  0  0  0  0  0  0
   -3.9370   -2.9225    2.8306 H   0  0  0  0  0  0  0  0  0  0  0  0
   -4.8258   -0.6360    2.3057 H   0  0  0  0  0  0  0  0  0  0  0  0
   -6.0225   -0.3046    1.0908 H   0  0  0  0  0  0  0  0  0  0  0  0
    2.1951   -1.0265    0.5530 H   0  0  0  0  0  0  0  0  0  0  0  0
    0.2272   -2.0903    0.5855 H   0  0  0  0  0  0  0  0  0  0  0  0
   -2.8178   -1.1891   -2.3116 H   0  0  0  0  0  0  0  0  0  0  0  0
    3.1030    0.0247   -2.2045 H   0  0  0  0  0  0  0  0  0  0  0  0
    2.0546    1.9019   -0.4105 H   0  0  0  0  0  0  0  0  0  0  0  0
    3.1952    1.2721    0.7750 H   0  0  0  0  0  0  0  0  0  0  0  0
   -2.6968    0.6247    2.3559 H   0  0  0  0  0  0  0  0  0  0  0  0
   -5.7287    1.4248   -0.5971 H   0  0  0  0  0  0  0  0  0  0  0  0
   -4.6415    3.5731   -1.1300 H   0  0  0  0  0  0  0  0  0  0  0  0
    2.3637   -2.0873   -2.2455 H   0  0  0  0  0  0  0  0  0  0  0  0
    4.3438   -1.7602    0.8711 H   0  0  0  0  0  0  0  0  0  0  0  0
    0.6058    1.5153   -3.2762 H   0  0  0  0  0  0  0  0  0  0  0  0
    5.1163    1.1129   -2.2465 H   0  0  0  0  0  0  0  0  0  0  0  0
    1.4319    0.5911    2.0357 H   0  0  0  0  0  0  0  0  0  0  0  0
    7.3548    1.5201   -1.3197 H   0  0  0  0  0  0  0  0  0  0  0  0
   -2.2526    2.4466   -4.1919 H   0  0  0  0  0  0  0  0  0  0  0  0
   -1.6021    2.5065   -2.5393 H   0  0  0  0  0  0  0  0  0  0  0  0
   -3.1534    1.6659   -2.8763 H   0  0  0  0  0  0  0  0  0  0  0  0
   -1.6479    4.5843    0.5287 H   0  0  0  0  0  0  0  0  0  0  0  0
   -2.0736    2.9945    3.8974 H   0  0  0  0  0  0  0  0  0  0  0  0
   -2.0754    4.5209    2.9553 H   0  0  0  0  0  0  0  0  0  0  0  0
   -0.5459    3.8295    3.5399 H   0  0  0  0  0  0  0  0  0  0  0  0
    8.8081    1.0136    0.2597 H   0  0  0  0  0  0  0  0  0  0  0  0
    6.8781    0.0945    3.3773 H   0  0  0  0  0  0  0  0  0  0  0  0
    6.7601   -1.5332    4.0817 H   0  0  0  0  0  0  0  0  0  0  0  0
    5.2999   -0.7576    3.4287 H   0  0  0  0  0  0  0  0  0  0  0  0
  1 14  1  0  0  0  0
  1 16  1  0  0  0  0
  2 16  2  0  0  0  0
  3 23  1  0  0  0  0
  3 58  1  0  0  0  0
  4 25  1  0  0  0  0
  4 37  1  0  0  0  0
  5 24  1  0  0  0  0
  5 60  1  0  0  0  0
  6 26  1  0  0  0  0
  6 62  1  0  0  0  0
  7 30  1  0  0  0  0
  7 39  1  0  0  0  0
  8 32  1  0  0  0  0
  8 67  1  0  0  0  0
  9 35  1  0  0  0  0
  9 40  1  0  0  0  0
 10 38  1  0  0  0  0
 10 71  1  0  0  0  0
 11 12  1  0  0  0  0
 11 13  1  0  0  0  0
 11 14  1  0  0  0  0
 11 41  1  0  0  0  0
 12 15  1  0  0  0  0
 12 16  1  0  0  0  0
 12 42  1  0  0  0  0
 13 17  1  0  0  0  0
 13 43  1  0  0  0  0
 13 44  1  0  0  0  0
 14 45  1  0  0  0  0
 14 46  1  0  0  0  0
 15 18  1  0  0  0  0
 15 47  1  0  0  0  0
 15 48  1  0  0  0  0
 17 20  2  0  0  0  0
 17 22  1  0  0  0  0
 18 27  2  0  0  0  0
 18 28  1  0  0  0  0
 19 21  1  0  0  0  0
 19 23  1  0  0  0  0
 19 26  1  0  0  0  0
 19 49  1  0  0  0  0
 20 21  1  0  0  0  0
 20 50  1  0  0  0  0
 21 24  2  0  0  0  0
 22 25  2  0  0  0  0
 22 51  1  0  0  0  0
 23 29  1  0  0  0  0
 23 52  1  0  0  0  0
 24 25  1  0  0  0  0
 26 53  1  0  0  0  0
 26 54  1  0  0  0  0
 27 30  1  0  0  0  0
 27 55  1  0  0  0  0
 28 31  2  0  0  0  0
 28 56  1  0  0  0  0
 29 33  2  0  0  0  0
 29 34  1  0  0  0  0
 30 32  2  0  0  0  0
 31 32  1  0  0  0  0
 31 57  1  0  0  0  0
 33 35  1  0  0  0  0
 33 59  1  0  0  0  0
 34 36  2  0  0  0  0
 34 61  1  0  0  0  0
 35 38  2  0  0  0  0
 36 38  1  0  0  0  0
 36 63  1  0  0  0  0
 37 64  1  0  0  0  0
 37 65  1  0  0  0  0
 37 66  1  0  0  0  0
 39 68  1  0  0  0  0
 39 69  1  0  0  0  0
 39 70  1  0  0  0  0
 40 72  1  0  0  0  0
 40 73  1  0  0  0  0
 40 74  1  0  0  0  0
M  END
> <PUBCHEM_COMPOUND_CID>
323896

> <PUBCHEM_CONFORMER_RMSD>
1.6

> <PUBCHEM_CONFORMER_DIVERSEORDER>
76
185
191
300
22
70
333
197
326
51
366
163
346
6
97
280
135
343
172
16
150
247
279
320
272
268
252
285
245
100
214
340
276
349
307
139
257
131
218
72
84
192
311
364
212
238
332
52
242
144
129
323
161
308
124
162
145
87
194
18
328
99
291
62
113
365
315
292
53
116
309
341
71
112
233
183
304
264
42
153
289
221
119
352
120
123
173
182
63
152
265
357
203
367
57
26
177
358
350
179
296
299
164
318
338
228
290
66
98
226
356
61
209
213
149
303
281
337
136
142
94
362
312
171
231
260
267
195
273
147
339
327
301
114
103
256
83
93
104
186
121
274
207
234
282
211
294
206
278
34
370
11
7
302
133
190
295
243
316
202
305
38
287
30
319
79
43
73
127
336
138
259
85
354
253
325
31
174
155
314
54
96
14
306
345
134
236
40
275
334
270
216
368
227
48
331
258
78
178
33
220
208
101
110
222
118
223
37
159
46
250
102
187
310
277
371
246
5
60
297
286
199
269
122
175
165
348
298
29
111
82
115
293
126
189
168
68
117
261
363
369
235
148
205
201
347
184
95
58
44
210
25
266
158
284
288
27
4
108
249
92
106
13
81
353
359
241
75
330
321
8
86
237
154
35
80
351
156
248
180
215
49
64
39
141
322
67
198
137
329
232
3
24
77
188
15
271
324
88
90
47
107
355
317
74
166
224
125
176
19
91
344
181
23
193
143
41
45
169
342
50
204
140
219
10
28
262
130
335
17
230
361
20
200
239
217
56
263
109
251
157
313
283
32
196
69
21
240
244
128
170
12
229
132
160
255
59
89
151
65
36
254
146
360
9
55
2
225
167
1
105

> <PUBCHEM_MMFF94_PARTIAL_CHARGES>
52
1 -0.43
10 -0.53
12 0.06
13 0.14
14 0.28
15 0.14
16 0.66
17 -0.14
18 -0.14
19 0.14
2 -0.57
20 -0.15
21 -0.14
22 -0.15
23 0.42
24 0.08
25 0.08
26 0.28
27 -0.15
28 -0.15
29 -0.14
3 -0.68
30 0.08
31 -0.15
32 0.08
33 -0.15
34 -0.15
35 0.08
36 -0.15
37 0.28
38 0.08
39 0.28
4 -0.36
40 0.28
5 -0.53
50 0.15
51 0.15
55 0.15
56 0.15
57 0.15
58 0.4
59 0.15
6 -0.68
60 0.45
61 0.15
62 0.4
63 0.15
67 0.45
7 -0.36
71 0.45
8 -0.53
9 -0.36

> <PUBCHEM_EFFECTIVE_ROTOR_COUNT>
11.8

> <PUBCHEM_PHARMACOPHORE_FEATURES>
15
1 10 donor
1 2 acceptor
1 3 acceptor
1 3 donor
1 4 acceptor
1 5 donor
1 6 acceptor
1 6 donor
1 7 acceptor
1 8 donor
1 9 acceptor
5 1 11 12 14 16 rings
6 17 20 21 22 24 25 rings
6 18 27 28 30 31 32 rings
6 29 33 34 35 36 38 rings

> <PUBCHEM_HEAVY_ATOM_COUNT>
40

> <PUBCHEM_ATOM_DEF_STEREO_COUNT>
0

> <PUBCHEM_ATOM_UDEF_STEREO_COUNT>
4

> <PUBCHEM_BOND_DEF_STEREO_COUNT>
0

> <PUBCHEM_BOND_UDEF_STEREO_COUNT>
0

> <PUBCHEM_ISOTOPIC_ATOM_COUNT>
0

> <PUBCHEM_COMPONENT_COUNT>
1

> <PUBCHEM_CACTVS_TAUTO_COUNT>
40

> <PUBCHEM_CONFORMER_ID>
0004F1380000004C

> <PUBCHEM_MMFF94_ENERGY>
140.8638

> <PUBCHEM_FEATURE_SELFOVERLAP>
76.128

> <PUBCHEM_SHAPE_FINGERPRINT>
10554248 39 14405191660589396788
11456790 92 18116735078894442187
12128747 34 18270968946739621590
12166972 35 17897172544970336687
12422481 6 17968661484874076358
12539745 222 18334292085210528558
12655364 131 17756686569087543875
13560911 43 18336272343947968441
14068700 675 18189903183232561311
14674994 50 13623825971981676337
14856354 85 18200599223457348030
15328684 2 18187643592648797776
15513586 35 18200031888305692656
15968369 153 17632572790838937528
16067689 68 17970051276530656042
16114785 44 17846489306045572007
18603816 31 14996289144849269825
21033648 29 17775294845509595371
22956985 138 17547858916132925555
23522609 53 17459497523080578476
23569943 247 16371547208584075658
392239 28 18270697436534865593
4366758 6 18044087957260343093
4616759 239 18261950864517586922
469060 322 17530970189189644460
484985 159 17676475138963218703
5104073 3 18114449120830596398
550186 7 17916604045640962229

> <PUBCHEM_SHAPE_MULTIPOLES>
764.49
17.17
4.22
2.95
32.31
1.61
-0.54
-5.7
7.99
-9.26
2.15
0.8
1.15
-0.24

> <PUBCHEM_SHAPE_SELFOVERLAP>
1648.508

> <PUBCHEM_SHAPE_VOLUME>
420.8

> <PUBCHEM_COORDINATE_TYPE>
2
5
10

$$$$
