44259139
  -OEChem-09082010103D

 70 74  0     1  0  0  0  0  0999 V2000
    0.2669    1.1821   -0.1231 O   0  0  0  0  0  0  0  0  0  0  0  0
    2.9898    0.7434   -0.5017 O   0  0  0  0  0  0  0  0  0  0  0  0
    4.1701   -0.9981   -1.5138 O   0  0  0  0  0  0  0  0  0  0  0  0
    2.0340    3.7841   -2.0218 O   0  0  0  0  0  0  0  0  0  0  0  0
    0.8560    5.2704    0.1578 O   0  0  0  0  0  0  0  0  0  0  0  0
   -1.5729    1.2788    1.3311 O   0  0  0  0  0  0  0  0  0  0  0  0
    0.4051    3.1449    1.9067 O   0  0  0  0  0  0  0  0  0  0  0  0
    5.3736    1.5322    0.8549 O   0  0  0  0  0  0  0  0  0  0  0  0
    7.2368   -0.6266    1.2357 O   0  0  0  0  0  0  0  0  0  0  0  0
    5.7665   -2.7102    0.1127 O   0  0  0  0  0  0  0  0  0  0  0  0
   -3.2067   -1.7668    0.0490 O   0  0  0  0  0  0  0  0  0  0  0  0
   -4.1804    2.1106    0.8372 O   0  0  0  0  0  0  0  0  0  0  0  0
   -6.6270    1.6665    0.0298 O   0  0  0  0  0  0  0  0  0  0  0  0
   -7.6017   -2.7354   -1.4602 O   0  0  0  0  0  0  0  0  0  0  0  0
    1.6470   -3.1608   -1.1826 O   0  0  0  0  0  0  0  0  0  0  0  0
    2.7847   -3.2044    1.3534 O   0  0  0  0  0  0  0  0  0  0  0  0
    0.9607    1.7747   -1.2261 C   0  0  1  0  0  0  0  0  0  0  0  0
    1.4723    3.1755   -0.8619 C   0  0  2  0  0  0  0  0  0  0  0  0
    0.3258    4.0440   -0.3374 C   0  0  1  0  0  0  0  0  0  0  0  0
   -0.4432    3.3204    0.7677 C   0  0  1  0  0  0  0  0  0  0  0  0
   -0.8773    1.9392    0.2780 C   0  0  1  0  0  0  0  0  0  0  0  0
    2.1058    0.8404   -1.6034 C   0  0  0  0  0  0  0  0  0  0  0  0
    4.2811    0.2841   -0.8991 C   0  0  2  0  0  0  0  0  0  0  0  0
    5.1584    0.2132    0.3537 C   0  0  1  0  0  0  0  0  0  0  0  0
    6.5159   -0.4065    0.0265 C   0  0  2  0  0  0  0  0  0  0  0  0
    6.3534   -1.7211   -0.7347 C   0  0  2  0  0  0  0  0  0  0  0  0
    5.4309   -1.5280   -1.9315 C   0  0  0  0  0  0  0  0  0  0  0  0
   -2.5291    0.4133    0.8456 C   0  0  0  0  0  0  0  0  0  0  0  0
   -2.2777   -0.8792    0.5684 C   0  0  0  0  0  0  0  0  0  0  0  0
   -3.8920    0.9446    0.6028 C   0  0  0  0  0  0  0  0  0  0  0  0
   -4.8769   -0.0056    0.0638 C   0  0  0  0  0  0  0  0  0  0  0  0
   -4.4803   -1.3173   -0.1862 C   0  0  0  0  0  0  0  0  0  0  0  0
   -0.9512   -1.4888    0.7710 C   0  0  0  0  0  0  0  0  0  0  0  0
   -6.1893    0.3966   -0.1967 C   0  0  0  0  0  0  0  0  0  0  0  0
   -5.3954   -2.2373   -0.6989 C   0  0  0  0  0  0  0  0  0  0  0  0
   -0.2671   -2.0444   -0.3100 C   0  0  0  0  0  0  0  0  0  0  0  0
   -0.3801   -1.5105    2.0435 C   0  0  0  0  0  0  0  0  0  0  0  0
   -7.1027   -0.5253   -0.7094 C   0  0  0  0  0  0  0  0  0  0  0  0
   -6.7068   -1.8397   -0.9599 C   0  0  0  0  0  0  0  0  0  0  0  0
    0.9883   -2.6217   -0.1190 C   0  0  0  0  0  0  0  0  0  0  0  0
    0.8751   -2.0880    2.2346 C   0  0  0  0  0  0  0  0  0  0  0  0
    1.5594   -2.6435    1.1535 C   0  0  0  0  0  0  0  0  0  0  0  0
    0.2790    1.8266   -2.0855 H   0  0  0  0  0  0  0  0  0  0  0  0
    2.2668    3.1331   -0.1085 H   0  0  0  0  0  0  0  0  0  0  0  0
   -0.3515    4.2987   -1.1619 H   0  0  0  0  0  0  0  0  0  0  0  0
   -1.2988    3.9132    1.1077 H   0  0  0  0  0  0  0  0  0  0  0  0
   -1.5381    2.0707   -0.5920 H   0  0  0  0  0  0  0  0  0  0  0  0
    2.6203    1.2246   -2.4923 H   0  0  0  0  0  0  0  0  0  0  0  0
    1.7157   -0.1573   -1.8293 H   0  0  0  0  0  0  0  0  0  0  0  0
    4.6975    1.0059   -1.6150 H   0  0  0  0  0  0  0  0  0  0  0  0
    4.6577   -0.3501    1.1499 H   0  0  0  0  0  0  0  0  0  0  0  0
    7.1063    0.2981   -0.5728 H   0  0  0  0  0  0  0  0  0  0  0  0
    7.3315   -2.1029   -1.0466 H   0  0  0  0  0  0  0  0  0  0  0  0
    5.8754   -0.8585   -2.6767 H   0  0  0  0  0  0  0  0  0  0  0  0
    5.2257   -2.4876   -2.4170 H   0  0  0  0  0  0  0  0  0  0  0  0
    1.3396    3.8365   -2.7006 H   0  0  0  0  0  0  0  0  0  0  0  0
    0.1103    5.7965    0.4940 H   0  0  0  0  0  0  0  0  0  0  0  0
    1.0659    2.4644    1.6943 H   0  0  0  0  0  0  0  0  0  0  0  0
    5.7949    2.0571    0.1530 H   0  0  0  0  0  0  0  0  0  0  0  0
    8.0899   -1.0286    0.9985 H   0  0  0  0  0  0  0  0  0  0  0  0
    5.7020   -3.5347   -0.3988 H   0  0  0  0  0  0  0  0  0  0  0  0
   -5.0891   -3.2618   -0.8953 H   0  0  0  0  0  0  0  0  0  0  0  0
   -0.7079   -2.0247   -1.3044 H   0  0  0  0  0  0  0  0  0  0  0  0
   -0.8999   -1.0891    2.9005 H   0  0  0  0  0  0  0  0  0  0  0  0
   -8.1246   -0.2136   -0.9124 H   0  0  0  0  0  0  0  0  0  0  0  0
    1.3080   -2.0991    3.2313 H   0  0  0  0  0  0  0  0  0  0  0  0
   -5.9116    2.2149    0.3863 H   0  0  0  0  0  0  0  0  0  0  0  0
   -8.4588   -2.2916   -1.5800 H   0  0  0  0  0  0  0  0  0  0  0  0
    1.1046   -3.0481   -1.9820 H   0  0  0  0  0  0  0  0  0  0  0  0
    3.0212   -3.1225    2.2933 H   0  0  0  0  0  0  0  0  0  0  0  0
  1 17  1  0  0  0  0
  1 21  1  0  0  0  0
  2 22  1  0  0  0  0
  2 23  1  0  0  0  0
  3 23  1  0  0  0  0
  3 27  1  0  0  0  0
  4 18  1  0  0  0  0
  4 56  1  0  0  0  0
  5 19  1  0  0  0  0
  5 57  1  0  0  0  0
  6 21  1  0  0  0  0
  6 28  1  0  0  0  0
  7 20  1  0  0  0  0
  7 58  1  0  0  0  0
  8 24  1  0  0  0  0
  8 59  1  0  0  0  0
  9 25  1  0  0  0  0
  9 60  1  0  0  0  0
 10 26  1  0  0  0  0
 10 61  1  0  0  0  0
 11 29  1  0  0  0  0
 11 32  1  0  0  0  0
 12 30  2  0  0  0  0
 13 34  1  0  0  0  0
 13 67  1  0  0  0  0
 14 39  1  0  0  0  0
 14 68  1  0  0  0  0
 15 40  1  0  0  0  0
 15 69  1  0  0  0  0
 16 42  1  0  0  0  0
 16 70  1  0  0  0  0
 17 18  1  0  0  0  0
 17 22  1  0  0  0  0
 17 43  1  0  0  0  0
 18 19  1  0  0  0  0
 18 44  1  0  0  0  0
 19 20  1  0  0  0  0
 19 45  1  0  0  0  0
 20 21  1  0  0  0  0
 20 46  1  0  0  0  0
 21 47  1  0  0  0  0
 22 48  1  0  0  0  0
 22 49  1  0  0  0  0
 23 24  1  0  0  0  0
 23 50  1  0  0  0  0
 24 25  1  0  0  0  0
 24 51  1  0  0  0  0
 25 26  1  0  0  0  0
 25 52  1  0  0  0  0
 26 27  1  0  0  0  0
 26 53  1  0  0  0  0
 27 54  1  0  0  0  0
 27 55  1  0  0  0  0
 28 29  2  0  0  0  0
 28 30  1  0  0  0  0
 29 33  1  0  0  0  0
 30 31  1  0  0  0  0
 31 32  1  0  0  0  0
 31 34  2  0  0  0  0
 32 35  2  0  0  0  0
 33 36  2  0  0  0  0
 33 37  1  0  0  0  0
 34 38  1  0  0  0  0
 35 39  1  0  0  0  0
 35 62  1  0  0  0  0
 36 40  1  0  0  0  0
 36 63  1  0  0  0  0
 37 41  2  0  0  0  0
 37 64  1  0  0  0  0
 38 39  2  0  0  0  0
 38 65  1  0  0  0  0
 40 42  2  0  0  0  0
 41 42  1  0  0  0  0
 41 66  1  0  0  0  0
M  END
> <PUBCHEM_COMPOUND_CID>
44259139

> <PUBCHEM_CONFORMER_RMSD>
1.6

> <PUBCHEM_CONFORMER_DIVERSEORDER>
1
81
18
79
70
33
80
66
76
14
73
25
42
59
68
9
7
22
38
77
89
60
56
13
64
5
28
4
51
29
48
91
16
92
46
8
31
78
88
62
54
39
3
35
83
67
41
74
27
30
93
55
23
69
34
15
6
19
72
49
10
57
43
53
17
24
36
40
2
11
12
82
96
63
85
45
37
65
58
75
61
100
20
87
52
84
94
21
71
47
99
90
50
97
98
26
44
95
32
86

> <PUBCHEM_MMFF94_PARTIAL_CHARGES>
57
1 -0.56
10 -0.68
11 -0.16
12 -0.57
13 -0.53
14 -0.53
15 -0.53
16 -0.53
17 0.28
18 0.28
19 0.28
2 -0.56
20 0.28
21 0.56
22 0.28
23 0.56
24 0.28
25 0.28
26 0.28
27 0.28
28 0.09
29 0.05
3 -0.56
30 0.47
31 0.09
32 0.08
33 0.03
34 0.08
35 -0.15
36 -0.15
37 -0.15
38 -0.15
39 0.08
4 -0.68
40 0.08
41 -0.15
42 0.08
5 -0.68
56 0.4
57 0.4
58 0.4
59 0.4
6 -0.36
60 0.4
61 0.4
62 0.15
63 0.15
64 0.15
65 0.15
66 0.15
67 0.45
68 0.45
69 0.45
7 -0.68
70 0.45
8 -0.68
9 -0.68

> <PUBCHEM_EFFECTIVE_ROTOR_COUNT>
8.4

> <PUBCHEM_PHARMACOPHORE_FEATURES>
27
1 1 acceptor
1 10 acceptor
1 10 donor
1 11 acceptor
1 12 acceptor
1 13 donor
1 14 donor
1 15 donor
1 16 donor
1 2 acceptor
1 3 acceptor
1 4 acceptor
1 4 donor
1 5 acceptor
1 5 donor
1 6 acceptor
1 7 acceptor
1 7 donor
1 8 acceptor
1 8 donor
1 9 acceptor
1 9 donor
6 1 17 18 19 20 21 rings
6 11 28 29 30 31 32 rings
6 3 23 24 25 26 27 rings
6 31 32 34 35 38 39 rings
6 33 36 37 40 41 42 rings

> <PUBCHEM_HEAVY_ATOM_COUNT>
42

> <PUBCHEM_ATOM_DEF_STEREO_COUNT>
5

> <PUBCHEM_ATOM_UDEF_STEREO_COUNT>
4

> <PUBCHEM_BOND_DEF_STEREO_COUNT>
0

> <PUBCHEM_BOND_UDEF_STEREO_COUNT>
0

> <PUBCHEM_ISOTOPIC_ATOM_COUNT>
0

> <PUBCHEM_COMPONENT_COUNT>
1

> <PUBCHEM_CACTVS_TAUTO_COUNT>
162

> <PUBCHEM_CONFORMER_ID>
02A3574300000001

> <PUBCHEM_MMFF94_ENERGY>
131.7689

> <PUBCHEM_FEATURE_SELFOVERLAP>
137.219

> <PUBCHEM_SHAPE_FINGERPRINT>
10032420 55 17894900811627634105
10258939 38 13470422049313340995
10674148 151 11674876693977315854
10930396 42 18265027268409462672
11513181 2 18052545369687092790
11828532 37 18338237184249460218
12166972 35 18412546539261309089
12838863 1 18335413569886158026
1361 2 18412546548057030422
13811026 1 18410009978757699762
14004919 189 18267042604144620073
14068700 675 18410860932323367652
14295345 954 18341894146806146338
14394314 77 18411140190849085777
14681490 219 18334575702816549583
14725015 67 18410565164290919656
15001296 14 18187925127185175336
15183329 4 17749105608349415775
15320295 40 18187354416526790174
15328829 1 18129400232700689153
15420108 30 17690857665376647681
15439362 3 18049721012284054913
15444296 7 17702662301664426311
18681886 176 18343014523685941027
20028762 73 18343025475900012702
21033648 29 10737579361909590732
23559900 14 18342170124905122393
24771293 8 18342461443693784720
24893992 56 18040721381573254619
25019877 29 17275386508280253798
4353968 344 18124321502561789542
463206 1 18335713740559400969
513532 50 18271798064479793778
57527358 35 15839889326135155602
57527585 103 17681880350461823291
6004065 56 18340769355153561156
6376802 137 17918001563511566769
6669772 16 17698997706718479017

> <PUBCHEM_SHAPE_MULTIPOLES>
770.43
16.89
4.98
1.65
7.19
4.77
-0.16
-10.12
5.21
-1.69
0.01
-0.96
-0.31
-1.57

> <PUBCHEM_SHAPE_SELFOVERLAP>
1685.347

> <PUBCHEM_SHAPE_VOLUME>
410.6

> <PUBCHEM_COORDINATE_TYPE>
2
5
10

$$$$
