73425454
  -OEChem-09082009383D

 74 77  0     1  0  0  0  0  0999 V2000
   -6.6840   -0.7888   -1.0320 O   0  0  0  0  0  0  0  0  0  0  0  0
   -5.7746   -2.5062   -2.2464 O   0  0  0  0  0  0  0  0  0  0  0  0
    1.1420    2.6407   -0.6919 O   0  0  0  0  0  0  0  0  0  0  0  0
   -0.7670    3.9710    0.8283 O   0  0  0  0  0  0  0  0  0  0  0  0
   -0.4797   -0.5694    3.2123 O   0  0  0  0  0  0  0  0  0  0  0  0
    1.3474   -2.2119    1.9128 O   0  0  0  0  0  0  0  0  0  0  0  0
    3.2277    1.9355   -2.3567 O   0  0  0  0  0  0  0  0  0  0  0  0
    2.6573    2.8344    1.6949 O   0  0  0  0  0  0  0  0  0  0  0  0
    4.7510   -2.9020   -1.0893 O   0  0  0  0  0  0  0  0  0  0  0  0
    7.1913   -2.2786    0.0860 O   0  0  0  0  0  0  0  0  0  0  0  0
   -4.7214    0.1567   -0.1648 C   0  0  2  0  0  0  0  0  0  0  0  0
   -4.3890   -1.2261   -0.7152 C   0  0  1  0  0  0  0  0  0  0  0  0
   -6.2268    0.0915    0.0004 C   0  0  0  0  0  0  0  0  0  0  0  0
   -4.3257    1.2570   -1.1535 C   0  0  0  0  0  0  0  0  0  0  0  0
   -4.0987   -2.2473    0.3757 C   0  0  0  0  0  0  0  0  0  0  0  0
   -5.6592   -1.5985   -1.4369 C   0  0  0  0  0  0  0  0  0  0  0  0
   -2.8706    1.6284   -1.0290 C   0  0  0  0  0  0  0  0  0  0  0  0
   -2.6489   -2.2349    0.7868 C   0  0  0  0  0  0  0  0  0  0  0  0
   -2.4815    2.6400   -0.1508 C   0  0  0  0  0  0  0  0  0  0  0  0
   -1.9125    0.9600   -1.7913 C   0  0  0  0  0  0  0  0  0  0  0  0
   -2.2237   -1.3990    1.8195 C   0  0  0  0  0  0  0  0  0  0  0  0
   -1.7322   -3.0599    0.1352 C   0  0  0  0  0  0  0  0  0  0  0  0
   -1.1345    2.9830   -0.0347 C   0  0  0  0  0  0  0  0  0  0  0  0
   -0.5655    1.3033   -1.6754 C   0  0  0  0  0  0  0  0  0  0  0  0
   -0.1764    2.3147   -0.7970 C   0  0  0  0  0  0  0  0  0  0  0  0
   -0.8820   -1.3884    2.2007 C   0  0  0  0  0  0  0  0  0  0  0  0
   -0.3903   -3.0491    0.5163 C   0  0  0  0  0  0  0  0  0  0  0  0
    2.0330    1.6092   -0.2711 C   0  0  1  0  0  0  0  0  0  0  0  0
    0.0347   -2.2134    1.5491 C   0  0  0  0  0  0  0  0  0  0  0  0
    3.4041    1.8077   -0.9435 C   0  0  1  0  0  0  0  0  0  0  0  0
    2.1025    1.5990    1.2537 C   0  0  0  0  0  0  0  0  0  0  0  0
    4.4136    0.7135   -0.6690 C   0  0  0  0  0  0  0  0  0  0  0  0
   -1.8083    4.6038    1.5698 C   0  0  0  0  0  0  0  0  0  0  0  0
    4.1190   -0.6077   -1.0056 C   0  0  0  0  0  0  0  0  0  0  0  0
    5.6386    1.0266   -0.0799 C   0  0  0  0  0  0  0  0  0  0  0  0
   -1.4799    0.2418    3.8256 C   0  0  0  0  0  0  0  0  0  0  0  0
    5.0495   -1.6158   -0.7535 C   0  0  0  0  0  0  0  0  0  0  0  0
    6.5691    0.0184    0.1723 C   0  0  0  0  0  0  0  0  0  0  0  0
    6.2746   -1.3028   -0.1646 C   0  0  0  0  0  0  0  0  0  0  0  0
    3.4774   -3.1365   -1.6872 C   0  0  0  0  0  0  0  0  0  0  0  0
   -4.2592    0.3698    0.8039 H   0  0  0  0  0  0  0  0  0  0  0  0
   -3.5865   -1.2064   -1.4562 H   0  0  0  0  0  0  0  0  0  0  0  0
   -6.5151   -0.3407    0.9649 H   0  0  0  0  0  0  0  0  0  0  0  0
   -6.7217    1.0617   -0.1029 H   0  0  0  0  0  0  0  0  0  0  0  0
   -4.9216    2.1613   -0.9704 H   0  0  0  0  0  0  0  0  0  0  0  0
   -4.5507    0.9725   -2.1899 H   0  0  0  0  0  0  0  0  0  0  0  0
   -4.3490   -3.2592    0.0285 H   0  0  0  0  0  0  0  0  0  0  0  0
   -4.7364   -2.0920    1.2559 H   0  0  0  0  0  0  0  0  0  0  0  0
   -3.2697    3.1208    0.4187 H   0  0  0  0  0  0  0  0  0  0  0  0
   -2.1972    0.1868   -2.4986 H   0  0  0  0  0  0  0  0  0  0  0  0
   -2.9803   -0.7901    2.3009 H   0  0  0  0  0  0  0  0  0  0  0  0
   -2.0506   -3.7136   -0.6724 H   0  0  0  0  0  0  0  0  0  0  0  0
    0.1631    0.7884   -2.2958 H   0  0  0  0  0  0  0  0  0  0  0  0
    0.3131   -3.6968    0.0000 H   0  0  0  0  0  0  0  0  0  0  0  0
    1.6400    0.6337   -0.5811 H   0  0  0  0  0  0  0  0  0  0  0  0
    3.8170    2.7731   -0.6250 H   0  0  0  0  0  0  0  0  0  0  0  0
    1.1044    1.5078    1.6932 H   0  0  0  0  0  0  0  0  0  0  0  0
    2.7259    0.7808    1.6263 H   0  0  0  0  0  0  0  0  0  0  0  0
    3.1597   -0.7951   -1.4746 H   0  0  0  0  0  0  0  0  0  0  0  0
   -2.3106    3.8991    2.2414 H   0  0  0  0  0  0  0  0  0  0  0  0
   -2.5103    5.1292    0.9134 H   0  0  0  0  0  0  0  0  0  0  0  0
   -1.3368    5.3631    2.2025 H   0  0  0  0  0  0  0  0  0  0  0  0
    5.8820    2.0510    0.1887 H   0  0  0  0  0  0  0  0  0  0  0  0
    1.8321   -2.8431    1.3537 H   0  0  0  0  0  0  0  0  0  0  0  0
    2.5740    2.6397   -2.5068 H   0  0  0  0  0  0  0  0  0  0  0  0
   -0.9832    0.8316    4.6031 H   0  0  0  0  0  0  0  0  0  0  0  0
   -2.2420   -0.3653    4.3259 H   0  0  0  0  0  0  0  0  0  0  0  0
   -1.9124    0.9552    3.1154 H   0  0  0  0  0  0  0  0  0  0  0  0
    2.6879    2.8013    2.6663 H   0  0  0  0  0  0  0  0  0  0  0  0
    7.5195    0.2762    0.6318 H   0  0  0  0  0  0  0  0  0  0  0  0
    7.9771   -1.8774    0.4952 H   0  0  0  0  0  0  0  0  0  0  0  0
    3.4045   -4.2122   -1.8783 H   0  0  0  0  0  0  0  0  0  0  0  0
    3.3887   -2.6351   -2.6570 H   0  0  0  0  0  0  0  0  0  0  0  0
    2.6580   -2.8793   -1.0080 H   0  0  0  0  0  0  0  0  0  0  0  0
  1 13  1  0  0  0  0
  1 16  1  0  0  0  0
  2 16  2  0  0  0  0
  3 25  1  0  0  0  0
  3 28  1  0  0  0  0
  4 23  1  0  0  0  0
  4 33  1  0  0  0  0
  5 26  1  0  0  0  0
  5 36  1  0  0  0  0
  6 29  1  0  0  0  0
  6 64  1  0  0  0  0
  7 30  1  0  0  0  0
  7 65  1  0  0  0  0
  8 31  1  0  0  0  0
  8 69  1  0  0  0  0
  9 37  1  0  0  0  0
  9 40  1  0  0  0  0
 10 39  1  0  0  0  0
 10 71  1  0  0  0  0
 11 12  1  0  0  0  0
 11 13  1  0  0  0  0
 11 14  1  0  0  0  0
 11 41  1  0  0  0  0
 12 15  1  0  0  0  0
 12 16  1  0  0  0  0
 12 42  1  0  0  0  0
 13 43  1  0  0  0  0
 13 44  1  0  0  0  0
 14 17  1  0  0  0  0
 14 45  1  0  0  0  0
 14 46  1  0  0  0  0
 15 18  1  0  0  0  0
 15 47  1  0  0  0  0
 15 48  1  0  0  0  0
 17 19  2  0  0  0  0
 17 20  1  0  0  0  0
 18 21  2  0  0  0  0
 18 22  1  0  0  0  0
 19 23  1  0  0  0  0
 19 49  1  0  0  0  0
 20 24  2  0  0  0  0
 20 50  1  0  0  0  0
 21 26  1  0  0  0  0
 21 51  1  0  0  0  0
 22 27  2  0  0  0  0
 22 52  1  0  0  0  0
 23 25  2  0  0  0  0
 24 25  1  0  0  0  0
 24 53  1  0  0  0  0
 26 29  2  0  0  0  0
 27 29  1  0  0  0  0
 27 54  1  0  0  0  0
 28 30  1  0  0  0  0
 28 31  1  0  0  0  0
 28 55  1  0  0  0  0
 30 32  1  0  0  0  0
 30 56  1  0  0  0  0
 31 57  1  0  0  0  0
 31 58  1  0  0  0  0
 32 34  2  0  0  0  0
 32 35  1  0  0  0  0
 33 60  1  0  0  0  0
 33 61  1  0  0  0  0
 33 62  1  0  0  0  0
 34 37  1  0  0  0  0
 34 59  1  0  0  0  0
 35 38  2  0  0  0  0
 35 63  1  0  0  0  0
 36 66  1  0  0  0  0
 36 67  1  0  0  0  0
 36 68  1  0  0  0  0
 37 39  2  0  0  0  0
 38 39  1  0  0  0  0
 38 70  1  0  0  0  0
 40 72  1  0  0  0  0
 40 73  1  0  0  0  0
 40 74  1  0  0  0  0
M  END
> <PUBCHEM_COMPOUND_CID>
73425454

> <PUBCHEM_CONFORMER_RMSD>
1.4

> <PUBCHEM_CONFORMER_DIVERSEORDER>
1
344
96
256
82
249
299
378
266
49
77
367
263
164
376
292
297
375
151
364
359
78
251
305
201
361
57
331
253
358
14
277
357
229
235
347
300
192
48
389
81
129
180
157
231
334
302
293
190
161
106
250
221
136
257
124
76
75
261
303
353
242
133
130
227
370
30
163
255
28
270
113
72
127
295
312
167
51
187
348
145
286
385
61
351
224
319
88
138
315
35
132
278
245
146
67
301
139
215
169
225
193
2
259
159
388
383
108
112
90
120
346
83
168
103
122
327
308
316
350
203
384
84
137
399
397
323
330
200
268
36
216
394
16
115
374
22
291
329
123
219
392
340
265
86
119
89
360
41
147
264
342
171
240
396
274
196
185
321
104
116
304
179
366
273
153
276
184
212
287
220
226
38
284
247
280
172
140
380
211
282
107
372
60
296
328
208
66
166
155
275
189
62
37
325
391
58
92
177
174
183
91
322
114
326
4
371
194
23
379
310
18
381
74
290
40
170
218
73
135
400
195
97
178
387
165
160
281
298
95
369
382
181
59
207
324
356
217
7
45
271
355
102
71
173
285
269
197
402
198
244
12
79
222
26
239
70
109
243
34
401
80
363
228
205
206
214
85
142
99
27
148
337
252
175
199
386
154
246
39
311
234
335
202
204
188
19
343
105
176
258
368
233
393
5
248
191
55
141
272
118
223
50
352
288
128
283
254
63
42
279
260
56
237
362
13
213
398
186
158
131
339
87
143
313
156
69
373
162
31
98
317
377
150
144
125
6
320
209
262
232
52
100
44
182
333
241
354
294
318
365
111
20
338
152
349
267
25
236
54
332
289
10
309
395
32
94
117
238
149
230
17
314
11
68
134
110
15
390
341
29
307
101
121
65
306
126
64
210
21
8
345
336
43
24
3
33
93
47
46
53
9

> <PUBCHEM_MMFF94_PARTIAL_CHARGES>
52
1 -0.43
10 -0.53
12 0.06
13 0.28
14 0.14
15 0.14
16 0.66
17 -0.14
18 -0.14
19 -0.15
2 -0.57
20 -0.15
21 -0.15
22 -0.15
23 0.08
24 -0.15
25 0.08
26 0.08
27 -0.15
28 0.28
29 0.08
3 -0.36
30 0.42
31 0.28
32 -0.14
33 0.28
34 -0.15
35 -0.15
36 0.28
37 0.08
38 -0.15
39 0.08
4 -0.36
40 0.28
49 0.15
5 -0.36
50 0.15
51 0.15
52 0.15
53 0.15
54 0.15
59 0.15
6 -0.53
63 0.15
64 0.45
65 0.4
69 0.4
7 -0.68
70 0.15
71 0.45
8 -0.68
9 -0.36

> <PUBCHEM_EFFECTIVE_ROTOR_COUNT>
12.8

> <PUBCHEM_PHARMACOPHORE_FEATURES>
15
1 10 donor
1 2 acceptor
1 3 acceptor
1 4 acceptor
1 5 acceptor
1 6 donor
1 7 acceptor
1 7 donor
1 8 acceptor
1 8 donor
1 9 acceptor
5 1 11 12 13 16 rings
6 17 19 20 23 24 25 rings
6 18 21 22 26 27 29 rings
6 32 34 35 37 38 39 rings

> <PUBCHEM_HEAVY_ATOM_COUNT>
40

> <PUBCHEM_ATOM_DEF_STEREO_COUNT>
2

> <PUBCHEM_ATOM_UDEF_STEREO_COUNT>
2

> <PUBCHEM_BOND_DEF_STEREO_COUNT>
0

> <PUBCHEM_BOND_UDEF_STEREO_COUNT>
0

> <PUBCHEM_ISOTOPIC_ATOM_COUNT>
0

> <PUBCHEM_COMPONENT_COUNT>
1

> <PUBCHEM_CACTVS_TAUTO_COUNT>
16

> <PUBCHEM_CONFORMER_ID>
0460622E00000001

> <PUBCHEM_MMFF94_ENERGY>
139.6157

> <PUBCHEM_FEATURE_SELFOVERLAP>
76.14

> <PUBCHEM_SHAPE_FINGERPRINT>
10305334 12 18051415067470121557
10483366 6 18335698334807258715
11607047 403 15976341248714026775
11828532 37 18042412507271001515
12107698 1 18409444761336041590
12422481 6 17539459449896316176
13402501 40 18335139799811407006
14289585 56 16226036774042312116
14931854 50 18041264522673341751
15001296 14 17749666406381816300
15183329 4 18187361034712885674
15351339 4 18187070724940740723
15968369 153 18195833819592037713
17627616 140 17605265177779384914
17909252 39 18342173375519911282
19315092 285 17417528141381343861
19958102 18 17894625968043349638
20764821 26 18263104161820220134
21792938 131 18263908974398674403
23559900 14 18117557546838783725
3383291 50 18334010584169018122
354706 132 17973459706836612606
404807 14 17624150307825563327
4173938 77 15792020016580767965
469060 322 14908184140086408120
508706 21 17967821530846396978
563151 248 17982190940914962537
6376802 137 18273497862170036448
6695519 79 17182250412934005224

> <PUBCHEM_SHAPE_MULTIPOLES>
764.49
14.63
4.86
2.47
9.52
1.99
1.9
-8.14
-6.75
-0.44
0.61
-1.34
-0.23
-0.01

> <PUBCHEM_SHAPE_SELFOVERLAP>
1641.168

> <PUBCHEM_SHAPE_VOLUME>
423

> <PUBCHEM_COORDINATE_TYPE>
2
5
10

$$$$
