6451579
  -OEChem-09082012083D

 39 40  0     1  0  0  0  0  0999 V2000
    3.3677    1.0554    1.5318 O   0  0  0  0  0  0  0  0  0  0  0  0
    4.9597    0.1268    0.2035 O   0  0  0  0  0  0  0  0  0  0  0  0
   -1.6154   -1.0036   -0.0027 C   0  0  1  0  0  0  0  0  0  0  0  0
   -1.1396    0.4563    0.2780 C   0  0  1  0  0  0  0  0  0  0  0  0
   -0.5449   -1.9934    0.5232 C   0  0  0  0  0  0  0  0  0  0  0  0
    0.2563    0.7288   -0.3192 C   0  0  0  0  0  0  0  0  0  0  0  0
   -2.9441   -1.2569    0.7645 C   0  0  0  0  0  0  0  0  0  0  0  0
    1.2947   -0.2737    0.2065 C   0  0  1  0  0  0  0  0  0  0  0  0
    0.8569   -1.7238   -0.0280 C   0  0  0  0  0  0  0  0  0  0  0  0
   -2.2346    1.4500   -0.0848 C   0  0  0  0  0  0  0  0  0  0  0  0
   -4.0299   -0.2195    0.4587 C   0  0  0  0  0  0  0  0  0  0  0  0
   -1.8494   -1.2653   -1.5115 C   0  0  0  0  0  0  0  0  0  0  0  0
   -3.5331    1.2130    0.6515 C   0  0  0  0  0  0  0  0  0  0  0  0
    2.6339   -0.0122   -0.4121 C   0  0  0  0  0  0  0  0  0  0  0  0
   -2.1163    2.4549   -0.9664 C   0  0  0  0  0  0  0  0  0  0  0  0
    3.7875    0.3763    0.4384 C   0  0  0  0  0  0  0  0  0  0  0  0
    2.8504   -0.1132   -1.7315 C   0  0  0  0  0  0  0  0  0  0  0  0
   -1.0127    0.5555    1.3683 H   0  0  0  0  0  0  0  0  0  0  0  0
   -0.8328   -3.0252    0.2854 H   0  0  0  0  0  0  0  0  0  0  0  0
   -0.4985   -1.9337    1.6189 H   0  0  0  0  0  0  0  0  0  0  0  0
    0.2036    0.7044   -1.4142 H   0  0  0  0  0  0  0  0  0  0  0  0
    0.5754    1.7444   -0.0470 H   0  0  0  0  0  0  0  0  0  0  0  0
   -2.7500   -1.2391    1.8454 H   0  0  0  0  0  0  0  0  0  0  0  0
   -3.3289   -2.2591    0.5378 H   0  0  0  0  0  0  0  0  0  0  0  0
    1.3515   -0.1428    1.2947 H   0  0  0  0  0  0  0  0  0  0  0  0
    1.5640   -2.4063    0.4615 H   0  0  0  0  0  0  0  0  0  0  0  0
    0.8781   -1.9832   -1.0926 H   0  0  0  0  0  0  0  0  0  0  0  0
   -4.8915   -0.3952    1.1138 H   0  0  0  0  0  0  0  0  0  0  0  0
   -4.3935   -0.3503   -0.5673 H   0  0  0  0  0  0  0  0  0  0  0  0
   -2.5994   -0.5942   -1.9405 H   0  0  0  0  0  0  0  0  0  0  0  0
   -0.9393   -1.1384   -2.1044 H   0  0  0  0  0  0  0  0  0  0  0  0
   -2.2002   -2.2909   -1.6749 H   0  0  0  0  0  0  0  0  0  0  0  0
   -3.3705    1.4030    1.7200 H   0  0  0  0  0  0  0  0  0  0  0  0
   -4.3146    1.9099    0.3259 H   0  0  0  0  0  0  0  0  0  0  0  0
   -1.1988    2.6442   -1.5107 H   0  0  0  0  0  0  0  0  0  0  0  0
   -2.9482    3.1214   -1.1704 H   0  0  0  0  0  0  0  0  0  0  0  0
    2.0607   -0.3921   -2.4211 H   0  0  0  0  0  0  0  0  0  0  0  0
    3.8239    0.0833   -2.1697 H   0  0  0  0  0  0  0  0  0  0  0  0
    4.1153    1.3211    2.1087 H   0  0  0  0  0  0  0  0  0  0  0  0
  1 16  1  0  0  0  0
  1 39  1  0  0  0  0
  2 16  2  0  0  0  0
  3  4  1  0  0  0  0
  3  5  1  0  0  0  0
  3  7  1  0  0  0  0
  3 12  1  0  0  0  0
  4  6  1  0  0  0  0
  4 10  1  0  0  0  0
  4 18  1  0  0  0  0
  5  9  1  0  0  0  0
  5 19  1  0  0  0  0
  5 20  1  0  0  0  0
  6  8  1  0  0  0  0
  6 21  1  0  0  0  0
  6 22  1  0  0  0  0
  7 11  1  0  0  0  0
  7 23  1  0  0  0  0
  7 24  1  0  0  0  0
  8  9  1  0  0  0  0
  8 14  1  0  0  0  0
  8 25  1  0  0  0  0
  9 26  1  0  0  0  0
  9 27  1  0  0  0  0
 10 13  1  0  0  0  0
 10 15  2  0  0  0  0
 11 13  1  0  0  0  0
 11 28  1  0  0  0  0
 11 29  1  0  0  0  0
 12 30  1  0  0  0  0
 12 31  1  0  0  0  0
 12 32  1  0  0  0  0
 13 33  1  0  0  0  0
 13 34  1  0  0  0  0
 14 16  1  0  0  0  0
 14 17  2  0  0  0  0
 15 35  1  0  0  0  0
 15 36  1  0  0  0  0
 17 37  1  0  0  0  0
 17 38  1  0  0  0  0
M  END
> <PUBCHEM_COMPOUND_CID>
6451579

> <PUBCHEM_CONFORMER_RMSD>
0.6

> <PUBCHEM_CONFORMER_DIVERSEORDER>
1
7
6
5
3
4
8
2

> <PUBCHEM_MMFF94_PARTIAL_CHARGES>
15
1 -0.65
10 -0.28
13 0.14
14 -0.12
15 -0.3
16 0.71
17 -0.3
2 -0.57
35 0.15
36 0.15
37 0.15
38 0.15
39 0.5
4 0.14
8 0.14

> <PUBCHEM_EFFECTIVE_ROTOR_COUNT>
3.4

> <PUBCHEM_PHARMACOPHORE_FEATURES>
6
1 1 acceptor
1 17 hydrophobe
1 2 acceptor
3 1 2 16 anion
6 3 4 5 6 8 9 rings
6 3 4 7 10 11 13 rings

> <PUBCHEM_HEAVY_ATOM_COUNT>
17

> <PUBCHEM_ATOM_DEF_STEREO_COUNT>
3

> <PUBCHEM_ATOM_UDEF_STEREO_COUNT>
0

> <PUBCHEM_BOND_DEF_STEREO_COUNT>
0

> <PUBCHEM_BOND_UDEF_STEREO_COUNT>
0

> <PUBCHEM_ISOTOPIC_ATOM_COUNT>
0

> <PUBCHEM_COMPONENT_COUNT>
1

> <PUBCHEM_CACTVS_TAUTO_COUNT>
1

> <PUBCHEM_CONFORMER_ID>
0062717B00000001

> <PUBCHEM_MMFF94_ENERGY>
40.5169

> <PUBCHEM_FEATURE_SELFOVERLAP>
30.518

> <PUBCHEM_SHAPE_FINGERPRINT>
10608611 8 18339080371875062729
10646746 165 18412826872045646984
10922523 26 18342748381510005110
11132069 177 18410582781650661785
11543360 7 16128364978672389869
11615757 297 16153429462971645388
11715629 250 18343019969292626070
12173636 292 18262800662193095839
12236239 1 17312824892311875772
12251169 10 17894352176641662448
12403814 3 18114184120842453277
12969540 114 18129647622563912429
13024252 1 10809337841672088703
13140716 1 18119257396220367403
13214271 11 18409450310544368867
13221675 6 18408328782692531599
13538477 17 17604723294830109626
13581323 91 18186800288029668616
13675066 3 18410578379330548746
14614273 12 18261951856359411573
15042514 8 18262525925888937915
15219456 202 17918000451341532414
15536298 74 18340210670066163590
15775835 57 18341896259871780387
16945 1 18334021588096191607
1741750 31 18268429023387285241
18186145 218 18129951078655528000
19786989 88 17132399406038142078
19862831 5 12535344606163830592
200 152 13984661477365571233
20279233 1 17704078395336442182
20510252 161 18412266120672525745
20645477 56 18130790066093590846
20645477 70 17060069094931357830
21339142 126 18410006659001005719
21486144 27 17632582651481916196
21524375 3 18410858732925318683
2334 1 17760094307972370007
23402539 116 18337102466753393183
23557571 272 17917151705468669670
23559900 14 18342468002340577750
2748010 2 18119537544015383631
305870 269 18115582639197513322
3286 77 13623526874796191566
3524813 1 18343858913829034617
43471831 8 18187929439201024011
5104073 3 18191878833886642275
53812653 166 18342176648311390632
6333449 129 18343579642222832693
69090 78 17918273160184587863
7364860 26 18126004862809997430
77492 1 17240488026293648196
81228 2 18195528314331503051
90316 7 17749103374808614525

> <PUBCHEM_SHAPE_MULTIPOLES>
338.11
7.41
1.98
1.21
5.42
0.2
-0.31
1.71
1.43
-1.57
-0.17
0.43
0.04
0.43

> <PUBCHEM_SHAPE_SELFOVERLAP>
698.065

> <PUBCHEM_SHAPE_VOLUME>
191.8

> <PUBCHEM_COORDINATE_TYPE>
2
5
10

$$$$
