13779265
  -OEChem-09082010323D

 23 24  0     0  0  0  0  0  0999 V2000
    2.3549   -1.1031    0.3627 S   0  0  0  0  0  0  0  0  0  0  0  0
   -1.3905    0.9084    0.1406 S   0  0  0  0  0  0  0  0  0  0  0  0
    5.9702    0.3394    0.2140 O   0  0  0  0  0  0  0  0  0  0  0  0
    1.1808    0.0455   -0.1214 C   0  0  0  0  0  0  0  0  0  0  0  0
   -0.1979   -0.2891   -0.1352 C   0  0  0  0  0  0  0  0  0  0  0  0
    1.7494    1.2517   -0.4665 C   0  0  0  0  0  0  0  0  0  0  0  0
   -0.7531   -1.5303   -0.3564 C   0  0  0  0  0  0  0  0  0  0  0  0
    3.6291    0.0129    0.1114 C   0  0  0  0  0  0  0  0  0  0  0  0
    3.1677    1.2329   -0.3319 C   0  0  0  0  0  0  0  0  0  0  0  0
   -2.1763   -1.4976   -0.2993 C   0  0  0  0  0  0  0  0  0  0  0  0
   -2.6548   -0.2329   -0.0361 C   0  0  0  0  0  0  0  0  0  0  0  0
    4.9720   -0.3961    0.3668 C   0  0  0  0  0  0  0  0  0  0  0  0
   -4.0327    0.1093    0.0783 C   0  0  0  0  0  0  0  0  0  0  0  0
   -5.2021    0.3995    0.1767 C   0  0  0  0  0  0  0  0  0  0  0  0
   -6.6166    0.7497    0.2963 C   0  0  0  0  0  0  0  0  0  0  0  0
    1.1977    2.1181   -0.8101 H   0  0  0  0  0  0  0  0  0  0  0  0
   -0.1879   -2.4314   -0.5605 H   0  0  0  0  0  0  0  0  0  0  0  0
    3.8106    2.0758   -0.5530 H   0  0  0  0  0  0  0  0  0  0  0  0
   -2.8086   -2.3646   -0.4475 H   0  0  0  0  0  0  0  0  0  0  0  0
    5.1306   -1.4296    0.7214 H   0  0  0  0  0  0  0  0  0  0  0  0
   -6.9437    1.3460   -0.5608 H   0  0  0  0  0  0  0  0  0  0  0  0
   -7.2378   -0.1499    0.3409 H   0  0  0  0  0  0  0  0  0  0  0  0
   -6.7978    1.3326    1.2043 H   0  0  0  0  0  0  0  0  0  0  0  0
  1  4  1  0  0  0  0
  1  8  1  0  0  0  0
  2  5  1  0  0  0  0
  2 11  1  0  0  0  0
  3 12  2  0  0  0  0
  4  5  1  0  0  0  0
  4  6  2  0  0  0  0
  5  7  2  0  0  0  0
  6  9  1  0  0  0  0
  6 16  1  0  0  0  0
  7 10  1  0  0  0  0
  7 17  1  0  0  0  0
  8  9  2  0  0  0  0
  8 12  1  0  0  0  0
  9 18  1  0  0  0  0
 10 11  2  0  0  0  0
 10 19  1  0  0  0  0
 11 13  1  0  0  0  0
 12 20  1  0  0  0  0
 13 14  3  0  0  0  0
 14 15  1  0  0  0  0
 15 21  1  0  0  0  0
 15 22  1  0  0  0  0
 15 23  1  0  0  0  0
M  END
> <PUBCHEM_COMPOUND_CID>
13779265

> <PUBCHEM_CONFORMER_RMSD>
0.6

> <PUBCHEM_CONFORMER_DIVERSEORDER>
1
2
6
5
3
4

> <PUBCHEM_MMFF94_PARTIAL_CHARGES>
20
1 -0.08
10 -0.15
11 0.06
12 0.59
13 -0.02
14 -0.2
15 0.2
16 0.15
17 0.15
18 0.15
19 0.15
2 -0.08
20 0.06
3 -0.57
4 0.04
5 0.04
6 -0.15
7 -0.15
8 -0.05
9 -0.15

> <PUBCHEM_EFFECTIVE_ROTOR_COUNT>
2

> <PUBCHEM_PHARMACOPHORE_FEATURES>
4
1 15 hydrophobe
1 3 acceptor
5 1 4 6 8 9 rings
5 2 5 7 10 11 rings

> <PUBCHEM_HEAVY_ATOM_COUNT>
15

> <PUBCHEM_ATOM_DEF_STEREO_COUNT>
0

> <PUBCHEM_ATOM_UDEF_STEREO_COUNT>
0

> <PUBCHEM_BOND_DEF_STEREO_COUNT>
0

> <PUBCHEM_BOND_UDEF_STEREO_COUNT>
0

> <PUBCHEM_ISOTOPIC_ATOM_COUNT>
0

> <PUBCHEM_COMPONENT_COUNT>
1

> <PUBCHEM_CACTVS_TAUTO_COUNT>
1

> <PUBCHEM_CONFORMER_ID>
00D2414100000001

> <PUBCHEM_MMFF94_ENERGY>
13.7241

> <PUBCHEM_FEATURE_SELFOVERLAP>
20.297

> <PUBCHEM_SHAPE_FINGERPRINT>
10354089 29 18259705592447269450
11089746 13 18060132158900524025
11401426 45 17847059991250637605
12236239 1 18410291423606160402
12251169 10 18408322189653851790
12714333 28 15410895150204448553
13533116 47 17346318133718189710
13740256 8 9078819793772282701
14123256 10 10015862085015179345
1420 363 8070026679147735697
14251718 22 10231755587070379945
14251764 18 18335138730100487599
15048467 5 18272368689756037544
15196674 1 18338516464143824020
17834072 8 18343309154210289454
17834076 25 17917991672227815147
18186145 218 17458896154138161158
18522853 276 18413388735282788544
187816 3 16702303451475794675
19141452 34 18411416236986789982
200 152 18272646870012751599
20279233 1 15841559599586325974
20281389 69 18407758131667953025
20645477 56 18272931635198116087
20645477 70 18338516326742430550
21267235 1 18334863783927773394
212847 35 18411984680071546232
23218964 4 18335419053973215348
23402539 116 17988918985824685173
23557571 272 13758362150373951763
23559900 14 18059571442926169784
26918003 58 17822014220129120393
33382 64 14707477054638733880
335352 9 18410856572878152286
3545911 37 18411982455309830102
366044 4 18343865515721093999
42 15 18040435498963000871
42788 4 18409730660276369865
4325135 7 18272366491434467231
4463277 17 18333450954430654972
5104073 3 18262513831223336488
59755656 215 18201165351786405294
8272917 22 18337112276121327254

> <PUBCHEM_SHAPE_MULTIPOLES>
310.52
12.96
1.36
0.69
6.48
0.21
0
-3.07
2.04
-0.06
-0.13
-0.04
0.01
-0.47

> <PUBCHEM_SHAPE_SELFOVERLAP>
636.882

> <PUBCHEM_SHAPE_VOLUME>
179.4

> <PUBCHEM_COORDINATE_TYPE>
2
5
10

$$$$
