323894
  -OEChem-09082009313D

 71 75  0     1  0  0  0  0  0999 V2000
   -6.1250   -1.5145   -1.1859 O   0  0  0  0  0  0  0  0  0  0  0  0
    1.9176   -1.1435    1.5977 O   0  0  0  0  0  0  0  0  0  0  0  0
   -6.7669   -0.4032    0.7125 O   0  0  0  0  0  0  0  0  0  0  0  0
   -0.3686   -0.6504    3.2484 O   0  0  0  0  0  0  0  0  0  0  0  0
    1.5771   -3.1834   -2.7300 O   0  0  0  0  0  0  0  0  0  0  0  0
    5.1158    2.1860   -0.8838 O   0  0  0  0  0  0  0  0  0  0  0  0
    0.0752    2.7282   -1.5151 O   0  0  0  0  0  0  0  0  0  0  0  0
    7.5529    1.0141   -0.2401 O   0  0  0  0  0  0  0  0  0  0  0  0
    0.1535    4.0884    0.9078 O   0  0  0  0  0  0  0  0  0  0  0  0
   -3.8196   -1.0917   -1.1244 C   0  0  1  0  0  0  0  0  0  0  0  0
   -4.5106   -0.1428   -0.1511 C   0  0  1  0  0  0  0  0  0  0  0  0
   -3.2044   -2.2869   -0.3909 C   0  0  0  0  0  0  0  0  0  0  0  0
    1.8775   -1.9762   -0.6901 C   0  0  1  0  0  0  0  0  0  0  0  0
   -4.9608   -1.5334   -2.0190 C   0  0  0  0  0  0  0  0  0  0  0  0
    0.5228   -1.9072   -0.0784 C   0  0  0  0  0  0  0  0  0  0  0  0
    2.7246   -1.8251    0.5961 C   0  0  1  0  0  0  0  0  0  0  0  0
   -1.8530   -1.9782    0.1623 C   0  0  0  0  0  0  0  0  0  0  0  0
   -4.5235    1.3006   -0.6348 C   0  0  0  0  0  0  0  0  0  0  0  0
   -5.9181   -0.6825   -0.1208 C   0  0  0  0  0  0  0  0  0  0  0  0
    0.6264   -1.3970    1.2084 C   0  0  0  0  0  0  0  0  0  0  0  0
   -0.7168   -2.1992   -0.6210 C   0  0  0  0  0  0  0  0  0  0  0  0
   -1.7372   -1.4588    1.4618 C   0  0  0  0  0  0  0  0  0  0  0  0
    2.1808   -3.2591   -1.4499 C   0  0  0  0  0  0  0  0  0  0  0  0
   -0.4837   -1.1570    1.9956 C   0  0  0  0  0  0  0  0  0  0  0  0
    4.0113   -1.0646    0.3714 C   0  0  0  0  0  0  0  0  0  0  0  0
   -3.2762    2.0417   -0.2270 C   0  0  0  0  0  0  0  0  0  0  0  0
    3.9759    0.2251   -0.1587 C   0  0  0  0  0  0  0  0  0  0  0  0
    5.2342   -1.6527    0.6943 C   0  0  0  0  0  0  0  0  0  0  0  0
   -2.1614    2.0453   -1.0653 C   0  0  0  0  0  0  0  0  0  0  0  0
   -3.2368    2.7243    0.9888 C   0  0  0  0  0  0  0  0  0  0  0  0
    5.1634    0.9271   -0.3657 C   0  0  0  0  0  0  0  0  0  0  0  0
    6.4218   -0.9508    0.4870 C   0  0  0  0  0  0  0  0  0  0  0  0
   -1.0071    2.7318   -0.6878 C   0  0  0  0  0  0  0  0  0  0  0  0
   -2.0825    3.4104    1.3663 C   0  0  0  0  0  0  0  0  0  0  0  0
    6.3864    0.3390   -0.0428 C   0  0  0  0  0  0  0  0  0  0  0  0
   -0.9677    3.4142    0.5280 C   0  0  0  0  0  0  0  0  0  0  0  0
   -1.5765   -0.4384    3.9818 C   0  0  0  0  0  0  0  0  0  0  0  0
    3.8260    2.7140   -1.1865 C   0  0  0  0  0  0  0  0  0  0  0  0
   -0.0471    2.0066   -2.7393 C   0  0  0  0  0  0  0  0  0  0  0  0
   -3.0455   -0.6144   -1.7330 H   0  0  0  0  0  0  0  0  0  0  0  0
   -4.1145   -0.2094    0.8644 H   0  0  0  0  0  0  0  0  0  0  0  0
   -3.1003   -3.1347   -1.0820 H   0  0  0  0  0  0  0  0  0  0  0  0
   -3.8649   -2.6554    0.4053 H   0  0  0  0  0  0  0  0  0  0  0  0
    1.9685   -1.1152   -1.3636 H   0  0  0  0  0  0  0  0  0  0  0  0
   -5.1266   -0.8352   -2.8468 H   0  0  0  0  0  0  0  0  0  0  0  0
   -4.8283   -2.5357   -2.4368 H   0  0  0  0  0  0  0  0  0  0  0  0
    2.9508   -2.8161    1.0175 H   0  0  0  0  0  0  0  0  0  0  0  0
   -4.6537    1.3618   -1.7233 H   0  0  0  0  0  0  0  0  0  0  0  0
   -5.3910    1.8343   -0.2225 H   0  0  0  0  0  0  0  0  0  0  0  0
   -0.8059   -2.5770   -1.6340 H   0  0  0  0  0  0  0  0  0  0  0  0
   -2.6528   -1.3302    2.0282 H   0  0  0  0  0  0  0  0  0  0  0  0
    1.8021   -4.1461   -0.9308 H   0  0  0  0  0  0  0  0  0  0  0  0
    3.2595   -3.3713   -1.6003 H   0  0  0  0  0  0  0  0  0  0  0  0
    2.9995    0.6448   -0.3741 H   0  0  0  0  0  0  0  0  0  0  0  0
    5.2778   -2.6568    1.1075 H   0  0  0  0  0  0  0  0  0  0  0  0
   -2.2513    1.5111   -2.0041 H   0  0  0  0  0  0  0  0  0  0  0  0
   -4.0977    2.7260    1.6521 H   0  0  0  0  0  0  0  0  0  0  0  0
    1.7893   -4.0098   -3.1963 H   0  0  0  0  0  0  0  0  0  0  0  0
    7.3676   -1.4209    0.7428 H   0  0  0  0  0  0  0  0  0  0  0  0
   -2.0650    3.9366    2.3169 H   0  0  0  0  0  0  0  0  0  0  0  0
   -1.2955   -0.0201    4.9538 H   0  0  0  0  0  0  0  0  0  0  0  0
   -2.0979   -1.3818    4.1758 H   0  0  0  0  0  0  0  0  0  0  0  0
   -2.2210    0.2977    3.4891 H   0  0  0  0  0  0  0  0  0  0  0  0
    8.2956    0.4519    0.0398 H   0  0  0  0  0  0  0  0  0  0  0  0
   -0.0020    4.4978    1.7763 H   0  0  0  0  0  0  0  0  0  0  0  0
    3.3232    2.1301   -1.9651 H   0  0  0  0  0  0  0  0  0  0  0  0
    3.2125    2.8249   -0.2858 H   0  0  0  0  0  0  0  0  0  0  0  0
    3.9767    3.7197   -1.5927 H   0  0  0  0  0  0  0  0  0  0  0  0
   -0.1981    0.9359   -2.5630 H   0  0  0  0  0  0  0  0  0  0  0  0
   -0.8182    2.4372   -3.3872 H   0  0  0  0  0  0  0  0  0  0  0  0
    0.9055    2.1086   -3.2694 H   0  0  0  0  0  0  0  0  0  0  0  0
  1 14  1  0  0  0  0
  1 19  1  0  0  0  0
  2 16  1  0  0  0  0
  2 20  1  0  0  0  0
  3 19  2  0  0  0  0
  4 24  1  0  0  0  0
  4 37  1  0  0  0  0
  5 23  1  0  0  0  0
  5 58  1  0  0  0  0
  6 31  1  0  0  0  0
  6 38  1  0  0  0  0
  7 33  1  0  0  0  0
  7 39  1  0  0  0  0
  8 35  1  0  0  0  0
  8 64  1  0  0  0  0
  9 36  1  0  0  0  0
  9 65  1  0  0  0  0
 10 11  1  0  0  0  0
 10 12  1  0  0  0  0
 10 14  1  0  0  0  0
 10 40  1  0  0  0  0
 11 18  1  0  0  0  0
 11 19  1  0  0  0  0
 11 41  1  0  0  0  0
 12 17  1  0  0  0  0
 12 42  1  0  0  0  0
 12 43  1  0  0  0  0
 13 15  1  0  0  0  0
 13 16  1  0  0  0  0
 13 23  1  0  0  0  0
 13 44  1  0  0  0  0
 14 45  1  0  0  0  0
 14 46  1  0  0  0  0
 15 20  2  0  0  0  0
 15 21  1  0  0  0  0
 16 25  1  0  0  0  0
 16 47  1  0  0  0  0
 17 21  2  0  0  0  0
 17 22  1  0  0  0  0
 18 26  1  0  0  0  0
 18 48  1  0  0  0  0
 18 49  1  0  0  0  0
 20 24  1  0  0  0  0
 21 50  1  0  0  0  0
 22 24  2  0  0  0  0
 22 51  1  0  0  0  0
 23 52  1  0  0  0  0
 23 53  1  0  0  0  0
 25 27  2  0  0  0  0
 25 28  1  0  0  0  0
 26 29  2  0  0  0  0
 26 30  1  0  0  0  0
 27 31  1  0  0  0  0
 27 54  1  0  0  0  0
 28 32  2  0  0  0  0
 28 55  1  0  0  0  0
 29 33  1  0  0  0  0
 29 56  1  0  0  0  0
 30 34  2  0  0  0  0
 30 57  1  0  0  0  0
 31 35  2  0  0  0  0
 32 35  1  0  0  0  0
 32 59  1  0  0  0  0
 33 36  2  0  0  0  0
 34 36  1  0  0  0  0
 34 60  1  0  0  0  0
 37 61  1  0  0  0  0
 37 62  1  0  0  0  0
 37 63  1  0  0  0  0
 38 66  1  0  0  0  0
 38 67  1  0  0  0  0
 38 68  1  0  0  0  0
 39 69  1  0  0  0  0
 39 70  1  0  0  0  0
 39 71  1  0  0  0  0
M  END
> <PUBCHEM_COMPOUND_CID>
323894

> <PUBCHEM_CONFORMER_RMSD>
1.4

> <PUBCHEM_CONFORMER_DIVERSEORDER>
1
211
194
70
82
242
109
124
310
22
183
254
182
325
331
146
116
157
251
128
338
105
337
217
294
165
272
79
255
291
339
90
24
295
19
199
302
210
18
233
155
237
64
200
189
72
40
111
131
80
240
104
315
166
170
206
94
256
293
202
37
262
306
332
142
89
264
281
186
327
164
122
322
248
173
172
192
203
285
98
314
276
219
266
184
62
273
224
45
243
247
290
147
154
225
335
48
158
36
249
161
130
136
134
68
30
329
75
241
178
232
286
311
35
120
85
300
25
110
93
159
148
135
193
43
140
101
301
55
323
197
214
320
259
168
235
324
267
119
229
58
76
250
12
144
312
308
283
280
185
330
282
284
340
275
201
100
296
207
29
137
307
126
328
309
297
227
261
174
316
27
167
9
10
81
231
153
208
26
53
143
313
196
304
246
176
292
257
112
99
13
123
115
298
132
103
56
71
268
77
303
46
230
160
204
216
156
39
215
213
260
8
171
117
11
180
21
226
87
65
218
190
59
198
222
66
188
28
221
88
253
169
129
187
32
239
114
333
228
149
74
52
41
244
288
151
133
234
162
47
278
223
16
42
17
238
279
163
195
319
321
145
265
334
7
150
84
63
252
152
92
3
269
236
69
97
108
138
177
289
305
57
4
34
127
299
209
287
270
220
179
191
5
61
141
175
23
14
2
67
258
60
78
51
317
274
121
336
73
326
245
6
318
44
113
31
181
271
102
95
139
54
50
33
49
125
212
106
263
205
38
107
96
20
277
91
86
15
118
83

> <PUBCHEM_MMFF94_PARTIAL_CHARGES>
49
1 -0.43
11 0.06
12 0.14
13 0.14
14 0.28
15 -0.14
16 0.42
17 -0.14
18 0.14
19 0.66
2 -0.36
20 0.08
21 -0.15
22 -0.15
23 0.28
24 0.08
25 -0.14
26 -0.14
27 -0.15
28 -0.15
29 -0.15
3 -0.57
30 -0.15
31 0.08
32 -0.15
33 0.08
34 -0.15
35 0.08
36 0.08
37 0.28
38 0.28
39 0.28
4 -0.36
5 -0.68
50 0.15
51 0.15
54 0.15
55 0.15
56 0.15
57 0.15
58 0.4
59 0.15
6 -0.36
60 0.15
64 0.45
65 0.45
7 -0.36
8 -0.53
9 -0.53

> <PUBCHEM_EFFECTIVE_ROTOR_COUNT>
10.4

> <PUBCHEM_PHARMACOPHORE_FEATURES>
14
1 2 acceptor
1 3 acceptor
1 4 acceptor
1 5 acceptor
1 5 donor
1 6 acceptor
1 7 acceptor
1 8 donor
1 9 donor
5 1 10 11 14 19 rings
5 2 13 15 16 20 rings
6 15 17 20 21 22 24 rings
6 25 27 28 31 32 35 rings
6 26 29 30 33 34 36 rings

> <PUBCHEM_HEAVY_ATOM_COUNT>
39

> <PUBCHEM_ATOM_DEF_STEREO_COUNT>
0

> <PUBCHEM_ATOM_UDEF_STEREO_COUNT>
4

> <PUBCHEM_BOND_DEF_STEREO_COUNT>
0

> <PUBCHEM_BOND_UDEF_STEREO_COUNT>
0

> <PUBCHEM_ISOTOPIC_ATOM_COUNT>
0

> <PUBCHEM_COMPONENT_COUNT>
1

> <PUBCHEM_CACTVS_TAUTO_COUNT>
16

> <PUBCHEM_CONFORMER_ID>
0004F13600000001

> <PUBCHEM_MMFF94_ENERGY>
132.5719

> <PUBCHEM_FEATURE_SELFOVERLAP>
71.155

> <PUBCHEM_SHAPE_FINGERPRINT>
11513181 2 18200041616152657502
11578080 2 17773049556945276942
12107698 1 18334286549050522514
12156800 1 16342048415554466673
12788726 201 18337660932723969515
13165054 235 18409718565432187885
13726171 33 18192146002401954425
14068700 675 17775280620946812785
14394314 77 18410578370952409733
15001296 14 18190458449115086780
15297060 5 18130506323690828441
15406563 42 18340775857866215422
15876981 60 18336262461276193599
15961568 22 18411699876515936462
15968369 153 18200304545946107464
18336668 15 18259702307377797069
19611394 137 18190468358016732091
20764821 26 18267325225672382836
21033648 29 17023747969817199978
21133410 90 17703508912907180024
21792938 131 18270112548179029681
22122407 14 18187090602592367488
2838139 119 18334007319935448126
3493558 16 18408046212573033310
392239 28 18341056233078245937
469060 322 18201445756999436393
57527585 103 17460627837738995123
6036956 94 17971207055818802884
6287921 2 17909558263360894252
6700243 42 17627822986147654182

> <PUBCHEM_SHAPE_MULTIPOLES>
749.78
14.04
4.49
2.41
10.45
3.24
1.43
-0.73
-2.56
-0.55
-1.02
-1.26
-0.56
-1.31

> <PUBCHEM_SHAPE_SELFOVERLAP>
1639.027

> <PUBCHEM_SHAPE_VOLUME>
409.4

> <PUBCHEM_COORDINATE_TYPE>
2
5
10

$$$$
