100067
  -OEChem-09082009493D

 56 59  0     1  0  0  0  0  0999 V2000
    1.0639   -1.5640    0.8698 O   0  0  0  0  0  0  0  0  0  0  0  0
   -0.9824    1.6663    0.8546 O   0  0  0  0  0  0  0  0  0  0  0  0
    5.4915   -2.0967   -1.4032 O   0  0  0  0  0  0  0  0  0  0  0  0
   -5.4620    2.1472   -1.3254 O   0  0  0  0  0  0  0  0  0  0  0  0
    5.8955    1.9587    1.1120 O   0  0  0  0  0  0  0  0  0  0  0  0
   -5.8082   -1.8444    1.2981 O   0  0  0  0  0  0  0  0  0  0  0  0
    7.0546   -0.0260   -0.4329 O   0  0  0  0  0  0  0  0  0  0  0  0
   -7.0026    0.1028   -0.2673 O   0  0  0  0  0  0  0  0  0  0  0  0
    0.6526    0.4528   -0.3520 C   0  0  2  0  0  0  0  0  0  0  0  0
   -0.6005   -0.3802   -0.3266 C   0  0  2  0  0  0  0  0  0  0  0  0
    1.5144   -0.2001    0.7372 C   0  0  2  0  0  0  0  0  0  0  0  0
   -1.4360    0.2999    0.7662 C   0  0  2  0  0  0  0  0  0  0  0  0
   -0.0898   -1.7559    0.0396 C   0  0  0  0  0  0  0  0  0  0  0  0
    0.1506    1.8373   -0.0080 C   0  0  0  0  0  0  0  0  0  0  0  0
    2.9910   -0.1536    0.4250 C   0  0  0  0  0  0  0  0  0  0  0  0
   -2.9198    0.2472    0.4905 C   0  0  0  0  0  0  0  0  0  0  0  0
    3.7768    0.8910    0.9147 C   0  0  0  0  0  0  0  0  0  0  0  0
   -3.6941   -0.7842    1.0243 C   0  0  0  0  0  0  0  0  0  0  0  0
    3.5731   -1.1547   -0.3544 C   0  0  0  0  0  0  0  0  0  0  0  0
   -3.5197    1.2294   -0.2994 C   0  0  0  0  0  0  0  0  0  0  0  0
    4.9371   -1.1114   -0.6432 C   0  0  0  0  0  0  0  0  0  0  0  0
   -4.8902    1.1804   -0.5545 C   0  0  0  0  0  0  0  0  0  0  0  0
    5.1408    0.9343    0.6257 C   0  0  0  0  0  0  0  0  0  0  0  0
   -5.0646   -0.8331    0.7689 C   0  0  0  0  0  0  0  0  0  0  0  0
    5.7209   -0.0669   -0.1532 C   0  0  0  0  0  0  0  0  0  0  0  0
   -5.6626    0.1491   -0.0204 C   0  0  0  0  0  0  0  0  0  0  0  0
    4.6201   -3.1274   -1.8642 C   0  0  0  0  0  0  0  0  0  0  0  0
   -5.5178    1.9075   -2.7301 C   0  0  0  0  0  0  0  0  0  0  0  0
    6.0132    3.1219    0.2949 C   0  0  0  0  0  0  0  0  0  0  0  0
   -5.9457   -3.0272    0.5132 C   0  0  0  0  0  0  0  0  0  0  0  0
    1.1509    0.4303   -1.3277 H   0  0  0  0  0  0  0  0  0  0  0  0
   -1.1220   -0.3819   -1.2904 H   0  0  0  0  0  0  0  0  0  0  0  0
    1.3449    0.2632    1.7177 H   0  0  0  0  0  0  0  0  0  0  0  0
   -1.2435   -0.1393    1.7534 H   0  0  0  0  0  0  0  0  0  0  0  0
   -0.8250   -2.3692    0.5682 H   0  0  0  0  0  0  0  0  0  0  0  0
    0.2369   -2.3003   -0.8531 H   0  0  0  0  0  0  0  0  0  0  0  0
    0.8981    2.4635    0.4869 H   0  0  0  0  0  0  0  0  0  0  0  0
   -0.1981    2.3592   -0.9058 H   0  0  0  0  0  0  0  0  0  0  0  0
    3.3298    1.6744    1.5220 H   0  0  0  0  0  0  0  0  0  0  0  0
   -3.2332   -1.5528    1.6400 H   0  0  0  0  0  0  0  0  0  0  0  0
    2.9217   -1.9379   -0.7243 H   0  0  0  0  0  0  0  0  0  0  0  0
   -2.9311    2.0350   -0.7308 H   0  0  0  0  0  0  0  0  0  0  0  0
    7.2769   -0.7980   -0.9819 H   0  0  0  0  0  0  0  0  0  0  0  0
   -7.3816   -0.6516    0.2156 H   0  0  0  0  0  0  0  0  0  0  0  0
    5.2288   -3.8251   -2.4489 H   0  0  0  0  0  0  0  0  0  0  0  0
    3.8519   -2.7353   -2.5395 H   0  0  0  0  0  0  0  0  0  0  0  0
    4.1944   -3.6994   -1.0326 H   0  0  0  0  0  0  0  0  0  0  0  0
   -6.1009    1.0065   -2.9450 H   0  0  0  0  0  0  0  0  0  0  0  0
   -4.5085    1.8092   -3.1423 H   0  0  0  0  0  0  0  0  0  0  0  0
   -6.0075    2.7623   -3.2045 H   0  0  0  0  0  0  0  0  0  0  0  0
    6.4768    2.8738   -0.6650 H   0  0  0  0  0  0  0  0  0  0  0  0
    6.6500    3.8428    0.8149 H   0  0  0  0  0  0  0  0  0  0  0  0
    5.0308    3.5763    0.1316 H   0  0  0  0  0  0  0  0  0  0  0  0
   -4.9708   -3.5035    0.3677 H   0  0  0  0  0  0  0  0  0  0  0  0
   -6.4003   -2.8004   -0.4564 H   0  0  0  0  0  0  0  0  0  0  0  0
   -6.5972   -3.7214    1.0509 H   0  0  0  0  0  0  0  0  0  0  0  0
  1 11  1  0  0  0  0
  1 13  1  0  0  0  0
  2 12  1  0  0  0  0
  2 14  1  0  0  0  0
  3 21  1  0  0  0  0
  3 27  1  0  0  0  0
  4 22  1  0  0  0  0
  4 28  1  0  0  0  0
  5 23  1  0  0  0  0
  5 29  1  0  0  0  0
  6 24  1  0  0  0  0
  6 30  1  0  0  0  0
  7 25  1  0  0  0  0
  7 43  1  0  0  0  0
  8 26  1  0  0  0  0
  8 44  1  0  0  0  0
  9 10  1  0  0  0  0
  9 11  1  0  0  0  0
  9 14  1  0  0  0  0
  9 31  1  0  0  0  0
 10 12  1  0  0  0  0
 10 13  1  0  0  0  0
 10 32  1  0  0  0  0
 11 15  1  0  0  0  0
 11 33  1  0  0  0  0
 12 16  1  0  0  0  0
 12 34  1  0  0  0  0
 13 35  1  0  0  0  0
 13 36  1  0  0  0  0
 14 37  1  0  0  0  0
 14 38  1  0  0  0  0
 15 17  2  0  0  0  0
 15 19  1  0  0  0  0
 16 18  2  0  0  0  0
 16 20  1  0  0  0  0
 17 23  1  0  0  0  0
 17 39  1  0  0  0  0
 18 24  1  0  0  0  0
 18 40  1  0  0  0  0
 19 21  2  0  0  0  0
 19 41  1  0  0  0  0
 20 22  2  0  0  0  0
 20 42  1  0  0  0  0
 21 25  1  0  0  0  0
 22 26  1  0  0  0  0
 23 25  2  0  0  0  0
 24 26  2  0  0  0  0
 27 45  1  0  0  0  0
 27 46  1  0  0  0  0
 27 47  1  0  0  0  0
 28 48  1  0  0  0  0
 28 49  1  0  0  0  0
 28 50  1  0  0  0  0
 29 51  1  0  0  0  0
 29 52  1  0  0  0  0
 29 53  1  0  0  0  0
 30 54  1  0  0  0  0
 30 55  1  0  0  0  0
 30 56  1  0  0  0  0
M  END
> <PUBCHEM_COMPOUND_CID>
100067

> <PUBCHEM_CONFORMER_RMSD>
0.8

> <PUBCHEM_CONFORMER_DIVERSEORDER>
27
106
136
74
61
83
223
75
219
86
46
100
242
39
4
142
118
3
18
42
23
63
191
41
127
102
1
133
98
70
172
134
31
155
246
201
58
235
26
105
37
13
16
153
123
236
69
158
244
206
56
65
237
226
8
231
186
79
10
185
62
51
173
243
115
229
161
187
240
130
52
94
179
216
208
222
182
217
152
92
137
190
121
163
239
156
183
32
38
81
116
245
124
119
148
17
224
192
162
171
84
111
67
95
128
49
228
80
110
19
89
238
43
147
150
57
72
181
215
204
234
154
138
2
101
157
71
6
117
247
175
126
22
210
122
55
12
96
35
227
165
193
241
36
59
143
24
82
132
218
28
104
169
60
213
189
145
188
146
178
174
15
225
112
176
166
177
139
87
64
47
220
77
194
107
53
180
170
131
135
11
149
5
141
197
233
29
66
113
20
164
195
221
129
168
30
205
99
202
209
34
196
214
207
45
125
144
230
212
184
93
85
54
167
114
211
203
151
7
140
48
44
90
14
199
232
198
103
88
40
25
73
200
120
78
9
97
160
159
33
50
68
76
109
91
21
108

> <PUBCHEM_MMFF94_PARTIAL_CHARGES>
34
1 -0.56
11 0.42
12 0.42
13 0.28
14 0.28
15 -0.14
16 -0.14
17 -0.15
18 -0.15
19 -0.15
2 -0.56
20 -0.15
21 0.08
22 0.08
23 0.08
24 0.08
25 0.08
26 0.08
27 0.28
28 0.28
29 0.28
3 -0.36
30 0.28
39 0.15
4 -0.36
40 0.15
41 0.15
42 0.15
43 0.45
44 0.45
5 -0.36
6 -0.36
7 -0.53
8 -0.53

> <PUBCHEM_EFFECTIVE_ROTOR_COUNT>
7.2

> <PUBCHEM_PHARMACOPHORE_FEATURES>
12
1 1 acceptor
1 2 acceptor
1 3 acceptor
1 4 acceptor
1 5 acceptor
1 6 acceptor
1 7 donor
1 8 donor
5 1 9 10 11 13 rings
5 2 9 10 12 14 rings
6 15 17 19 21 23 25 rings
6 16 18 20 22 24 26 rings

> <PUBCHEM_HEAVY_ATOM_COUNT>
30

> <PUBCHEM_ATOM_DEF_STEREO_COUNT>
0

> <PUBCHEM_ATOM_UDEF_STEREO_COUNT>
4

> <PUBCHEM_BOND_DEF_STEREO_COUNT>
0

> <PUBCHEM_BOND_UDEF_STEREO_COUNT>
0

> <PUBCHEM_ISOTOPIC_ATOM_COUNT>
0

> <PUBCHEM_COMPONENT_COUNT>
1

> <PUBCHEM_CACTVS_TAUTO_COUNT>
3

> <PUBCHEM_CONFORMER_ID>
000186E30000001B

> <PUBCHEM_MMFF94_ENERGY>
130.5206

> <PUBCHEM_FEATURE_SELFOVERLAP>
61.381

> <PUBCHEM_SHAPE_FINGERPRINT>
10 15 18262794194357821040
10835480 77 18410005516450618653
12236239 1 17489870423506338681
12516196 113 18410294739352769601
12730499 353 18202288026657962002
13533116 47 17704075075664384418
13782708 43 18341057311378930742
14461889 52 18338795732151222338
15183329 4 15554723369644984821
15799311 1 15698001837961843439
17844677 252 18201729401182836792
17980427 23 15864078641706622063
18335252 98 18270687579137008970
18927931 339 13254790266455642165
19377110 9 15769782320752349015
19489759 90 17748828514471332193
20511986 3 17313649474456112339
20567600 75 18411139134312815903
21033648 29 18341316864689439617
21279426 13 18337391543531924231
22061861 79 18271808986312666878
22149856 69 18200330903890975675
22393880 68 18261109647780311699
2303208 19 18411710871738040035
23081809 10 16774078453528809041
23559900 14 18411133619554007921
23569914 152 16974192610805516933
24771750 20 17832149694477359620
314194 84 17489864921104560558
32027 91 18196657289477614894
34797466 226 18411420613463284993
4073 2 18335424607550896755
44249763 50 17604132758644781221
44880568 143 18187363220941157445
46194498 28 18342743988628866860
5104073 3 18130228142985578794
6698420 124 18267871567667921657

> <PUBCHEM_SHAPE_MULTIPOLES>
570.43
19.64
2.87
1.42
0.77
0.61
-0.85
-0.63
-2.93
-1.11
-0.73
0.99
-0.06
4.73

> <PUBCHEM_SHAPE_SELFOVERLAP>
1237.646

> <PUBCHEM_SHAPE_VOLUME>
316.5

> <PUBCHEM_COORDINATE_TYPE>
2
5
10

$$$$
