75012092
  -OEChem-09082009203D

 34 35  0     1  0  0  0  0  0999 V2000
    4.4224   -0.0649    1.5390 O   0  0  0  0  0  0  0  0  0  0  0  0
    0.9428   -2.9354   -0.5009 O   0  0  0  0  0  0  0  0  0  0  0  0
    1.7601    2.3228   -0.6961 O   0  0  0  0  0  0  0  0  0  0  0  0
    0.3802    0.5161   -1.0136 N   0  0  0  0  0  0  0  0  0  0  0  0
    2.2470   -1.1010   -0.0272 N   0  0  0  0  0  0  0  0  0  0  0  0
   -0.1120   -0.7732   -0.5567 C   0  0  2  0  0  0  0  0  0  0  0  0
    2.2988    0.2668    0.4646 C   0  0  1  0  0  0  0  0  0  0  0  0
   -0.9357   -0.6695    0.7174 C   0  0  0  0  0  0  0  0  0  0  0  0
    3.7377    0.7463    0.5892 C   0  0  2  0  0  0  0  0  0  0  0  0
    1.0665   -1.7160   -0.3988 C   0  0  0  0  0  0  0  0  0  0  0  0
    1.4998    1.1386   -0.4920 C   0  0  0  0  0  0  0  0  0  0  0  0
   -2.3345   -0.1847    0.4415 C   0  0  0  0  0  0  0  0  0  0  0  0
    4.4734    0.6858   -0.7409 C   0  0  0  0  0  0  0  0  0  0  0  0
   -2.6154    1.1814    0.4581 C   0  0  0  0  0  0  0  0  0  0  0  0
   -3.3491   -1.1022    0.1694 C   0  0  0  0  0  0  0  0  0  0  0  0
   -3.9113    1.6302    0.2026 C   0  0  0  0  0  0  0  0  0  0  0  0
   -4.6449   -0.6537   -0.0861 C   0  0  0  0  0  0  0  0  0  0  0  0
   -4.9260    0.7126   -0.0695 C   0  0  0  0  0  0  0  0  0  0  0  0
   -0.7155   -1.1693   -1.3834 H   0  0  0  0  0  0  0  0  0  0  0  0
    1.8103    0.2756    1.4451 H   0  0  0  0  0  0  0  0  0  0  0  0
   -0.4653   -0.0092    1.4563 H   0  0  0  0  0  0  0  0  0  0  0  0
   -0.9976   -1.6493    1.2100 H   0  0  0  0  0  0  0  0  0  0  0  0
    3.7655    1.7775    0.9603 H   0  0  0  0  0  0  0  0  0  0  0  0
   -0.2132    1.0573   -1.6352 H   0  0  0  0  0  0  0  0  0  0  0  0
    3.0447   -1.7048    0.1489 H   0  0  0  0  0  0  0  0  0  0  0  0
    4.5603   -0.3405   -1.1135 H   0  0  0  0  0  0  0  0  0  0  0  0
    5.5024    1.0398   -0.6070 H   0  0  0  0  0  0  0  0  0  0  0  0
    4.0091    1.3026   -1.5145 H   0  0  0  0  0  0  0  0  0  0  0  0
   -1.8341    1.9066    0.6695 H   0  0  0  0  0  0  0  0  0  0  0  0
   -3.1423   -2.1690    0.1513 H   0  0  0  0  0  0  0  0  0  0  0  0
    3.9486    0.0096    2.3849 H   0  0  0  0  0  0  0  0  0  0  0  0
   -4.1301    2.6939    0.2155 H   0  0  0  0  0  0  0  0  0  0  0  0
   -5.4349   -1.3680   -0.2985 H   0  0  0  0  0  0  0  0  0  0  0  0
   -5.9349    1.0618   -0.2685 H   0  0  0  0  0  0  0  0  0  0  0  0
  1  9  1  0  0  0  0
  1 31  1  0  0  0  0
  2 10  2  0  0  0  0
  3 11  2  0  0  0  0
  4  6  1  0  0  0  0
  4 11  1  0  0  0  0
  4 24  1  0  0  0  0
  5  7  1  0  0  0  0
  5 10  1  0  0  0  0
  5 25  1  0  0  0  0
  6  8  1  0  0  0  0
  6 10  1  0  0  0  0
  6 19  1  0  0  0  0
  7  9  1  0  0  0  0
  7 11  1  0  0  0  0
  7 20  1  0  0  0  0
  8 12  1  0  0  0  0
  8 21  1  0  0  0  0
  8 22  1  0  0  0  0
  9 13  1  0  0  0  0
  9 23  1  0  0  0  0
 12 14  2  0  0  0  0
 12 15  1  0  0  0  0
 13 26  1  0  0  0  0
 13 27  1  0  0  0  0
 13 28  1  0  0  0  0
 14 16  1  0  0  0  0
 14 29  1  0  0  0  0
 15 17  2  0  0  0  0
 15 30  1  0  0  0  0
 16 18  2  0  0  0  0
 16 32  1  0  0  0  0
 17 18  1  0  0  0  0
 17 33  1  0  0  0  0
 18 34  1  0  0  0  0
M  END
> <PUBCHEM_COMPOUND_CID>
75012092

> <PUBCHEM_CONFORMER_RMSD>
0.6

> <PUBCHEM_CONFORMER_DIVERSEORDER>
2
111
36
114
33
83
86
141
93
119
25
112
104
138
89
96
131
16
91
79
75
31
52
135
145
62
64
87
29
21
134
70
47
102
81
103
115
88
109
76
72
80
35
68
105
27
116
117
55
41
67
82
32
142
120
45
127
20
53
126
106
39
34
24
140
50
118
37
94
98
69
30
121
101
58
23
125
84
51
18
78
57
38
26
54
40
108
60
95
56
61
124
66
143
144
139
97
46
99
49
77
74
43
10
14
73
42
136
113
90
7
13
5
48
85
63
123
15
9
137
130
71
19
129
1
12
28
132
22
133
6
17
8
128
59
4
44
65
100
11
3
110
92
107
122

> <PUBCHEM_MMFF94_PARTIAL_CHARGES>
25
1 -0.68
10 0.57
11 0.57
12 -0.14
14 -0.15
15 -0.15
16 -0.15
17 -0.15
18 -0.15
2 -0.57
24 0.37
25 0.37
29 0.15
3 -0.57
30 0.15
31 0.4
32 0.15
33 0.15
34 0.15
4 -0.73
5 -0.73
6 0.36
7 0.36
8 0.14
9 0.28

> <PUBCHEM_EFFECTIVE_ROTOR_COUNT>
3.8

> <PUBCHEM_PHARMACOPHORE_FEATURES>
8
1 1 acceptor
1 1 donor
1 2 acceptor
1 3 acceptor
1 4 donor
1 5 donor
6 12 14 15 16 17 18 rings
6 4 5 6 7 10 11 rings

> <PUBCHEM_HEAVY_ATOM_COUNT>
18

> <PUBCHEM_ATOM_DEF_STEREO_COUNT>
0

> <PUBCHEM_ATOM_UDEF_STEREO_COUNT>
3

> <PUBCHEM_BOND_DEF_STEREO_COUNT>
0

> <PUBCHEM_BOND_UDEF_STEREO_COUNT>
0

> <PUBCHEM_ISOTOPIC_ATOM_COUNT>
0

> <PUBCHEM_COMPONENT_COUNT>
1

> <PUBCHEM_CACTVS_TAUTO_COUNT>
9

> <PUBCHEM_CONFORMER_ID>
047897FC00000002

> <PUBCHEM_MMFF94_ENERGY>
56.0808

> <PUBCHEM_FEATURE_SELFOVERLAP>
40.608

> <PUBCHEM_SHAPE_FINGERPRINT>
10980938 120 18411421665730291886
11132069 177 18408322172632432949
11370993 70 18412259541178351323
12011746 2 18408046208330651060
12251169 10 18259983798885289499
12403260 363 18337666533498252181
12507557 5 18187643643655719441
12633257 1 17821443568972445633
12788726 201 17614282595130847682
12839892 36 18339912792467100339
128620 24 16128657453250236689
13380535 76 18408608080142156147
14790565 3 18263091058023349348
15048467 5 15791735239211971180
15196674 1 18410858724556533833
15375358 24 18334579023222057587
15442244 35 18051981312005914619
15536298 74 18270966743426387631
1601671 61 18334019389120682036
17349148 13 18333729156631463595
17492 89 18411984620681041055
17802600 8 18408600383734912861
17862501 102 18336539508135898291
18186145 218 17916884459808216347
192875 21 18336541715934107437
200 152 18272649065416156229
20645477 70 17987802895502230247
212916 134 18201421606720253226
21524375 3 18201162155892795815
23175994 123 14201114600822180519
23402539 116 18335974355328445351
23402655 69 18342738469173852581
23419403 2 16690442774496742042
23557571 272 17775294863163900121
23559900 14 17841991092196861899
296302 2 17603308171508848333
345986 75 17097744925851067912
351380 180 18335135414728860345
3545911 37 18412549790952257881
4072396 5 18335127675081534154
465052 167 17967254221406082114
474 4 18334018298061578649
4921388 177 15195278781320334965
4990 188 17703520925872041102
5104073 3 18340492154044123483
58051976 378 18343021108060456751
7364860 26 18200599072964414287
83771 10 10087643689023946811
9709674 26 18410301302659214747

> <PUBCHEM_SHAPE_MULTIPOLES>
342.86
9.51
2.02
0.94
2.8
0.61
0.11
-2.66
1.11
-0.22
-0.39
-0.72
-0.06
-0.18

> <PUBCHEM_SHAPE_SELFOVERLAP>
720.626

> <PUBCHEM_SHAPE_VOLUME>
190.4

> <PUBCHEM_COORDINATE_TYPE>
2
5
10

$$$$
