11179934
  -OEChem-09082009483D

 69 72  0     1  0  0  0  0  0999 V2000
   -6.2340   -0.2175   -0.7607 O   0  0  0  0  0  0  0  0  0  0  0  0
    3.0744   -0.0816   -1.6283 O   0  0  0  0  0  0  0  0  0  0  0  0
    2.1138   -2.0562   -0.8397 O   0  0  0  0  0  0  0  0  0  0  0  0
    6.2845   -0.4798    0.9022 O   0  0  0  0  0  0  0  0  0  0  0  0
    5.7326    2.0768   -0.3287 O   0  0  0  0  0  0  0  0  0  0  0  0
    3.7757   -1.9254    1.4470 O   0  0  0  0  0  0  0  0  0  0  0  0
   -5.7421    1.6317   -2.0210 O   0  0  0  0  0  0  0  0  0  0  0  0
    2.5619    2.1634   -3.1297 O   0  0  0  0  0  0  0  0  0  0  0  0
    0.5770   -3.7153    0.7816 O   0  0  0  0  0  0  0  0  0  0  0  0
    0.0869    0.8409    3.1729 O   0  0  0  0  0  0  0  0  0  0  0  0
    1.4864    2.8002    1.7839 O   0  0  0  0  0  0  0  0  0  0  0  0
   -4.0834   -0.7465    0.0098 C   0  0  2  0  0  0  0  0  0  0  0  0
   -4.0588    0.6688   -0.5573 C   0  0  2  0  0  0  0  0  0  0  0  0
   -3.5251   -1.7567   -0.9965 C   0  0  0  0  0  0  0  0  0  0  0  0
   -5.5621   -0.9795    0.2483 C   0  0  0  0  0  0  0  0  0  0  0  0
    4.9769   -0.0476    0.5231 C   0  0  1  0  0  0  0  0  0  0  0  0
    5.1137    0.8499   -0.7070 C   0  0  1  0  0  0  0  0  0  0  0  0
    4.1044   -1.2668    0.2241 C   0  0  2  0  0  0  0  0  0  0  0  0
    3.7425    1.1431   -1.3206 C   0  0  1  0  0  0  0  0  0  0  0  0
   -3.9261    1.7387    0.5175 C   0  0  0  0  0  0  0  0  0  0  0  0
    2.8022   -0.8628   -0.4672 C   0  0  1  0  0  0  0  0  0  0  0  0
   -5.4105    0.7741   -1.2166 C   0  0  0  0  0  0  0  0  0  0  0  0
   -2.0367   -1.8383   -0.9524 C   0  0  0  0  0  0  0  0  0  0  0  0
    3.8623    1.9399   -2.6159 C   0  0  0  0  0  0  0  0  0  0  0  0
   -2.4848    2.0190    0.8575 C   0  0  0  0  0  0  0  0  0  0  0  0
   -1.4129   -2.7472   -0.0977 C   0  0  0  0  0  0  0  0  0  0  0  0
    0.7477   -1.9908   -0.8705 C   0  0  0  0  0  0  0  0  0  0  0  0
   -1.2684   -1.0056   -1.7660 C   0  0  0  0  0  0  0  0  0  0  0  0
   -0.0206   -2.8235   -0.0569 C   0  0  0  0  0  0  0  0  0  0  0  0
    0.1238   -1.0818   -1.7250 C   0  0  0  0  0  0  0  0  0  0  0  0
   -1.8532    1.2953    1.8689 C   0  0  0  0  0  0  0  0  0  0  0  0
   -1.7824    3.0022    0.1606 C   0  0  0  0  0  0  0  0  0  0  0  0
   -0.5191    1.5545    2.1833 C   0  0  0  0  0  0  0  0  0  0  0  0
   -0.4485    3.2616    0.4751 C   0  0  0  0  0  0  0  0  0  0  0  0
    0.1833    2.5377    1.4864 C   0  0  0  0  0  0  0  0  0  0  0  0
   -0.2801   -4.5295    1.5796 C   0  0  0  0  0  0  0  0  0  0  0  0
   -0.7011   -0.1457    3.8361 C   0  0  0  0  0  0  0  0  0  0  0  0
   -3.5422   -0.8537    0.9548 H   0  0  0  0  0  0  0  0  0  0  0  0
   -3.3043    0.8015   -1.3362 H   0  0  0  0  0  0  0  0  0  0  0  0
   -3.9274   -2.7566   -0.7841 H   0  0  0  0  0  0  0  0  0  0  0  0
   -3.8597   -1.5334   -2.0185 H   0  0  0  0  0  0  0  0  0  0  0  0
   -5.8839   -0.6030    1.2256 H   0  0  0  0  0  0  0  0  0  0  0  0
   -5.8594   -2.0293    0.1700 H   0  0  0  0  0  0  0  0  0  0  0  0
    4.5823    0.5166    1.3764 H   0  0  0  0  0  0  0  0  0  0  0  0
    5.7672    0.3677   -1.4442 H   0  0  0  0  0  0  0  0  0  0  0  0
    4.6543   -1.9918   -0.3875 H   0  0  0  0  0  0  0  0  0  0  0  0
    3.1141    1.7178   -0.6266 H   0  0  0  0  0  0  0  0  0  0  0  0
   -4.4775    1.4689    1.4279 H   0  0  0  0  0  0  0  0  0  0  0  0
   -4.3890    2.6771    0.1822 H   0  0  0  0  0  0  0  0  0  0  0  0
    2.1765   -0.2837    0.2285 H   0  0  0  0  0  0  0  0  0  0  0  0
    4.3452    2.9074   -2.4492 H   0  0  0  0  0  0  0  0  0  0  0  0
    4.4259    1.3784   -3.3685 H   0  0  0  0  0  0  0  0  0  0  0  0
   -2.0608   -3.3656    0.5144 H   0  0  0  0  0  0  0  0  0  0  0  0
   -1.7344   -0.3082   -2.4560 H   0  0  0  0  0  0  0  0  0  0  0  0
    6.6555   -1.0002    0.1693 H   0  0  0  0  0  0  0  0  0  0  0  0
    5.1531    2.5197    0.3145 H   0  0  0  0  0  0  0  0  0  0  0  0
    3.2801   -1.2999    2.0028 H   0  0  0  0  0  0  0  0  0  0  0  0
    0.6983   -0.4384   -2.3839 H   0  0  0  0  0  0  0  0  0  0  0  0
   -2.4496    0.5535    2.3876 H   0  0  0  0  0  0  0  0  0  0  0  0
   -2.2626    3.5707   -0.6315 H   0  0  0  0  0  0  0  0  0  0  0  0
    2.6619    2.6679   -3.9549 H   0  0  0  0  0  0  0  0  0  0  0  0
    0.0875    4.0292   -0.0767 H   0  0  0  0  0  0  0  0  0  0  0  0
   -0.8707   -3.9284    2.2795 H   0  0  0  0  0  0  0  0  0  0  0  0
   -0.9032   -5.1860    0.9629 H   0  0  0  0  0  0  0  0  0  0  0  0
    0.3630   -5.1782    2.1835 H   0  0  0  0  0  0  0  0  0  0  0  0
    1.8108    3.5026    1.1944 H   0  0  0  0  0  0  0  0  0  0  0  0
   -1.5428    0.3038    4.3738 H   0  0  0  0  0  0  0  0  0  0  0  0
   -1.0185   -0.9378    3.1490 H   0  0  0  0  0  0  0  0  0  0  0  0
   -0.0597   -0.6174    4.5880 H   0  0  0  0  0  0  0  0  0  0  0  0
  1 15  1  0  0  0  0
  1 22  1  0  0  0  0
  2 19  1  0  0  0  0
  2 21  1  0  0  0  0
  3 21  1  0  0  0  0
  3 27  1  0  0  0  0
  4 16  1  0  0  0  0
  4 55  1  0  0  0  0
  5 17  1  0  0  0  0
  5 56  1  0  0  0  0
  6 18  1  0  0  0  0
  6 57  1  0  0  0  0
  7 22  2  0  0  0  0
  8 24  1  0  0  0  0
  8 61  1  0  0  0  0
  9 29  1  0  0  0  0
  9 36  1  0  0  0  0
 10 33  1  0  0  0  0
 10 37  1  0  0  0  0
 11 35  1  0  0  0  0
 11 66  1  0  0  0  0
 12 13  1  0  0  0  0
 12 14  1  0  0  0  0
 12 15  1  0  0  0  0
 12 38  1  0  0  0  0
 13 20  1  0  0  0  0
 13 22  1  0  0  0  0
 13 39  1  0  0  0  0
 14 23  1  0  0  0  0
 14 40  1  0  0  0  0
 14 41  1  0  0  0  0
 15 42  1  0  0  0  0
 15 43  1  0  0  0  0
 16 17  1  0  0  0  0
 16 18  1  0  0  0  0
 16 44  1  0  0  0  0
 17 19  1  0  0  0  0
 17 45  1  0  0  0  0
 18 21  1  0  0  0  0
 18 46  1  0  0  0  0
 19 24  1  0  0  0  0
 19 47  1  0  0  0  0
 20 25  1  0  0  0  0
 20 48  1  0  0  0  0
 20 49  1  0  0  0  0
 21 50  1  0  0  0  0
 23 26  2  0  0  0  0
 23 28  1  0  0  0  0
 24 51  1  0  0  0  0
 24 52  1  0  0  0  0
 25 31  2  0  0  0  0
 25 32  1  0  0  0  0
 26 29  1  0  0  0  0
 26 53  1  0  0  0  0
 27 29  2  0  0  0  0
 27 30  1  0  0  0  0
 28 30  2  0  0  0  0
 28 54  1  0  0  0  0
 30 58  1  0  0  0  0
 31 33  1  0  0  0  0
 31 59  1  0  0  0  0
 32 34  2  0  0  0  0
 32 60  1  0  0  0  0
 33 35  2  0  0  0  0
 34 35  1  0  0  0  0
 34 62  1  0  0  0  0
 36 63  1  0  0  0  0
 36 64  1  0  0  0  0
 36 65  1  0  0  0  0
 37 67  1  0  0  0  0
 37 68  1  0  0  0  0
 37 69  1  0  0  0  0
M  END
> <PUBCHEM_COMPOUND_CID>
11179934

> <PUBCHEM_CONFORMER_RMSD>
1.2

> <PUBCHEM_CONFORMER_DIVERSEORDER>
1
137
112
130
22
129
90
220
253
115
131
184
103
239
150
125
259
207
234
206
132
113
257
188
74
105
142
69
177
174
59
222
178
64
208
170
263
82
228
256
156
30
68
163
204
202
38
210
231
175
225
29
199
33
241
81
99
232
50
194
255
173
162
92
167
40
12
179
134
49
193
172
136
254
100
65
190
238
244
209
166
183
198
180
143
21
117
247
146
242
77
61
47
10
196
195
52
245
153
101
192
43
4
158
119
80
73
89
186
191
126
35
97
182
135
251
187
160
151
169
121
32
223
205
128
230
13
124
48
250
145
106
34
6
159
102
219
53
224
120
83
248
5
147
122
87
216
138
264
227
261
45
237
140
66
197
144
56
229
214
176
54
252
88
46
27
104
71
123
221
62
109
217
76
85
185
171
168
91
215
31
212
155
84
262
249
86
14
37
107
149
161
114
25
189
154
57
93
2
94
200
235
19
260
236
165
79
240
7
11
110
181
17
75
218
8
67
72
95
36
98
108
226
78
148
96
28
233
258
152
42
3
211
26
111
9
157
133
243
139
15
203
24
141
201
127
20
58
70
39
18
41
55
51
116
63
118
164
44
213
23
16
60
246

> <PUBCHEM_MMFF94_PARTIAL_CHARGES>
47
1 -0.43
10 -0.36
11 -0.53
13 0.06
14 0.14
15 0.28
16 0.28
17 0.28
18 0.28
19 0.28
2 -0.56
20 0.14
21 0.56
22 0.66
23 -0.14
24 0.28
25 -0.14
26 -0.15
27 0.08
28 -0.15
29 0.08
3 -0.36
30 -0.15
31 -0.15
32 -0.15
33 0.08
34 -0.15
35 0.08
36 0.28
37 0.28
4 -0.68
5 -0.68
53 0.15
54 0.15
55 0.4
56 0.4
57 0.4
58 0.15
59 0.15
6 -0.68
60 0.15
61 0.4
62 0.15
66 0.45
7 -0.57
8 -0.68
9 -0.36

> <PUBCHEM_EFFECTIVE_ROTOR_COUNT>
11

> <PUBCHEM_PHARMACOPHORE_FEATURES>
18
1 10 acceptor
1 11 donor
1 2 acceptor
1 3 acceptor
1 4 acceptor
1 4 donor
1 5 acceptor
1 5 donor
1 6 acceptor
1 6 donor
1 7 acceptor
1 8 acceptor
1 8 donor
1 9 acceptor
5 1 12 13 15 22 rings
6 2 16 17 18 19 21 rings
6 23 26 27 28 29 30 rings
6 25 31 32 33 34 35 rings

> <PUBCHEM_HEAVY_ATOM_COUNT>
37

> <PUBCHEM_ATOM_DEF_STEREO_COUNT>
7

> <PUBCHEM_ATOM_UDEF_STEREO_COUNT>
0

> <PUBCHEM_BOND_DEF_STEREO_COUNT>
0

> <PUBCHEM_BOND_UDEF_STEREO_COUNT>
0

> <PUBCHEM_ISOTOPIC_ATOM_COUNT>
0

> <PUBCHEM_COMPONENT_COUNT>
1

> <PUBCHEM_CACTVS_TAUTO_COUNT>
6

> <PUBCHEM_CONFORMER_ID>
00AA979E00000001

> <PUBCHEM_MMFF94_ENERGY>
123.1368

> <PUBCHEM_FEATURE_SELFOVERLAP>
91.422

> <PUBCHEM_SHAPE_FINGERPRINT>
10670039 82 18201173052804932220
10816530 23 16444487873414324780
11607047 403 12924566898905440908
12156800 1 17472080260580721820
12788726 201 18271536355005940704
13402501 40 17846206782906767816
13617811 41 18339916023016145473
14787075 74 18411421743657310887
14931854 50 18202002110083888989
14932702 115 18128263470030594720
17492 54 18342460335307255649
17909252 39 17273434772040500710
19319366 153 18409442566650379799
20715895 44 18189048712131110493
20764821 26 18128240375817071853
2132832 1 17761477102869436419
24893992 56 18341328994684612671
3493558 16 17972031440699777517
4093350 32 14997108191761745161
469060 322 18341630221144649603
5265222 85 16689619768516482720
6669772 16 18126834113404265321

> <PUBCHEM_SHAPE_MULTIPOLES>
696.88
11.73
4.34
2.77
1.95
1.82
-1.17
-2.89
4.88
-0.13
-1.33
0.67
-1.07
-1.35

> <PUBCHEM_SHAPE_SELFOVERLAP>
1489.73

> <PUBCHEM_SHAPE_VOLUME>
384.6

> <PUBCHEM_COORDINATE_TYPE>
2
5
10

$$$$
