74128
  -OEChem-09082011353D

 22 23  0     0  0  0  0  0  0999 V2000
   -3.8062   -0.6289   -0.8596 O   0  0  0  0  0  0  0  0  0  0  0  0
    0.5405   -0.5822    0.1048 C   0  0  0  0  0  0  0  0  0  0  0  0
    0.8686    0.7889   -0.0179 C   0  0  0  0  0  0  0  0  0  0  0  0
   -1.8138    0.0085    0.2720 C   0  0  0  0  0  0  0  0  0  0  0  0
   -0.8057   -0.9558    0.2489 C   0  0  0  0  0  0  0  0  0  0  0  0
   -0.1590    1.7461    0.0069 C   0  0  0  0  0  0  0  0  0  0  0  0
   -1.4911    1.3569    0.1510 C   0  0  0  0  0  0  0  0  0  0  0  0
    1.5680   -1.5391    0.0797 C   0  0  0  0  0  0  0  0  0  0  0  0
    2.2145    1.1628   -0.1622 C   0  0  0  0  0  0  0  0  0  0  0  0
   -3.2386   -0.4059    0.4252 C   0  0  0  0  0  0  0  0  0  0  0  0
    2.9000   -1.1498   -0.0642 C   0  0  0  0  0  0  0  0  0  0  0  0
    3.2227    0.1986   -0.1848 C   0  0  0  0  0  0  0  0  0  0  0  0
   -1.0685   -2.0083    0.3421 H   0  0  0  0  0  0  0  0  0  0  0  0
    0.0703    2.8056   -0.0865 H   0  0  0  0  0  0  0  0  0  0  0  0
   -2.2677    2.1171    0.1653 H   0  0  0  0  0  0  0  0  0  0  0  0
    1.3392   -2.5988    0.1723 H   0  0  0  0  0  0  0  0  0  0  0  0
    2.4899    2.2110   -0.2582 H   0  0  0  0  0  0  0  0  0  0  0  0
   -3.3199   -1.3270    1.0130 H   0  0  0  0  0  0  0  0  0  0  0  0
   -3.8202    0.3669    0.9398 H   0  0  0  0  0  0  0  0  0  0  0  0
    3.6853   -1.9000   -0.0820 H   0  0  0  0  0  0  0  0  0  0  0  0
    4.2599    0.5011   -0.2968 H   0  0  0  0  0  0  0  0  0  0  0  0
   -4.7307   -0.8960   -0.7202 H   0  0  0  0  0  0  0  0  0  0  0  0
  1 10  1  0  0  0  0
  1 22  1  0  0  0  0
  2  3  1  0  0  0  0
  2  5  1  0  0  0  0
  2  8  2  0  0  0  0
  3  6  1  0  0  0  0
  3  9  2  0  0  0  0
  4  5  2  0  0  0  0
  4  7  1  0  0  0  0
  4 10  1  0  0  0  0
  5 13  1  0  0  0  0
  6  7  2  0  0  0  0
  6 14  1  0  0  0  0
  7 15  1  0  0  0  0
  8 11  1  0  0  0  0
  8 16  1  0  0  0  0
  9 12  1  0  0  0  0
  9 17  1  0  0  0  0
 10 18  1  0  0  0  0
 10 19  1  0  0  0  0
 11 12  2  0  0  0  0
 11 20  1  0  0  0  0
 12 21  1  0  0  0  0
M  END
> <PUBCHEM_COMPOUND_CID>
74128

> <PUBCHEM_CONFORMER_RMSD>
0.4

> <PUBCHEM_CONFORMER_DIVERSEORDER>
1
3
4
2

> <PUBCHEM_MMFF94_PARTIAL_CHARGES>
18
1 -0.68
10 0.42
11 -0.15
12 -0.15
13 0.15
14 0.15
15 0.15
16 0.15
17 0.15
20 0.15
21 0.15
22 0.4
4 -0.14
5 -0.15
6 -0.15
7 -0.15
8 -0.15
9 -0.15

> <PUBCHEM_EFFECTIVE_ROTOR_COUNT>
1

> <PUBCHEM_PHARMACOPHORE_FEATURES>
4
1 1 acceptor
1 1 donor
6 2 3 4 5 6 7 rings
6 2 3 8 9 11 12 rings

> <PUBCHEM_HEAVY_ATOM_COUNT>
12

> <PUBCHEM_ATOM_DEF_STEREO_COUNT>
0

> <PUBCHEM_ATOM_UDEF_STEREO_COUNT>
0

> <PUBCHEM_BOND_DEF_STEREO_COUNT>
0

> <PUBCHEM_BOND_UDEF_STEREO_COUNT>
0

> <PUBCHEM_ISOTOPIC_ATOM_COUNT>
0

> <PUBCHEM_COMPONENT_COUNT>
1

> <PUBCHEM_CACTVS_TAUTO_COUNT>
1

> <PUBCHEM_CONFORMER_ID>
0001219000000001

> <PUBCHEM_MMFF94_ENERGY>
32.4746

> <PUBCHEM_FEATURE_SELFOVERLAP>
20.324

> <PUBCHEM_SHAPE_FINGERPRINT>
10219947 1 18413111679531909331
11206711 2 18261961730109456068
11471102 20 18408882953669392509
11769659 78 18340201886725823690
12032990 46 18409176514526039427
12897270 3 18408044013212004882
13380535 76 18336548317330282130
14251717 144 18412259575321668991
14325111 11 18410015407569942592
14576447 43 18128524058818754487
14993402 34 18201719582713375543
15757776 16 18408879646349629558
16945 1 18409175436557676984
17844478 74 17967544466816715785
18186145 218 17603867780262660427
193761 8 17760931740421346635
200 152 18272642437928177695
20201158 50 18334296474097373531
20645477 70 18410571765176118479
21501502 16 18265901263266046240
21501925 9 18335973186881147610
2334 1 17617945072182507360
23402539 116 18341040857005259470
23402655 69 18411413991019360197
23463225 33 18408889507784172392
23552423 10 18188498964764556266
23559900 14 17260751742870673558
2748010 2 18265615385937268748
5084963 1 18343585101263312256
528886 8 18338515343431744474
53812654 25 18202271528818185390
57096353 35 18410300232700168452
581208 293 18340764935563680632
7364860 26 18343024432433780288
8030462 33 18261968370392522590

> <PUBCHEM_SHAPE_MULTIPOLES>
241.09
5.23
1.66
0.69
1.94
0.28
0.03
-1.24
0.64
-0.39
-0.01
0.22
-0.04
-0.15

> <PUBCHEM_SHAPE_SELFOVERLAP>
525.12

> <PUBCHEM_SHAPE_VOLUME>
132.4

> <PUBCHEM_COORDINATE_TYPE>
2
5
10

$$$$
