46842526
  -OEChem-09082010323D

 29 30  0     1  0  0  0  0  0999 V2000
   -1.7293   -0.8954    0.6685 S   0  0  0  0  0  0  0  0  0  0  0  0
    2.0188    0.8060   -0.4191 S   0  0  0  0  0  0  0  0  0  0  0  0
   -5.0861   -1.0326   -0.9039 O   0  0  0  0  0  0  0  0  0  0  0  0
   -4.5625    1.5054    1.6743 O   0  0  0  0  0  0  0  0  0  0  0  0
   -4.4284   -0.3914    0.1868 C   0  0  1  0  0  0  0  0  0  0  0  0
   -2.9899   -0.1291   -0.2009 C   0  0  0  0  0  0  0  0  0  0  0  0
   -0.5325   -0.1468   -0.3007 C   0  0  0  0  0  0  0  0  0  0  0  0
   -2.5071    0.6790   -1.2068 C   0  0  0  0  0  0  0  0  0  0  0  0
   -1.0835    0.6685   -1.2646 C   0  0  0  0  0  0  0  0  0  0  0  0
   -5.1790    0.8884    0.5531 C   0  0  0  0  0  0  0  0  0  0  0  0
    0.8459   -0.3911   -0.0681 C   0  0  0  0  0  0  0  0  0  0  0  0
    1.4146   -1.5400    0.4364 C   0  0  0  0  0  0  0  0  0  0  0  0
    2.8321   -1.4357    0.5365 C   0  0  0  0  0  0  0  0  0  0  0  0
    3.2926   -0.2114    0.1045 C   0  0  0  0  0  0  0  0  0  0  0  0
    4.6610    0.1841    0.0857 C   0  0  0  0  0  0  0  0  0  0  0  0
    5.8146    0.5179    0.0696 C   0  0  0  0  0  0  0  0  0  0  0  0
    7.2189    0.9244    0.0487 C   0  0  0  0  0  0  0  0  0  0  0  0
   -4.4619   -1.0791    1.0410 H   0  0  0  0  0  0  0  0  0  0  0  0
   -3.1396    1.2495   -1.8750 H   0  0  0  0  0  0  0  0  0  0  0  0
   -0.5152    1.2338   -1.9930 H   0  0  0  0  0  0  0  0  0  0  0  0
   -5.1947    1.5982   -0.2816 H   0  0  0  0  0  0  0  0  0  0  0  0
   -6.2203    0.6592    0.8051 H   0  0  0  0  0  0  0  0  0  0  0  0
    0.8635   -2.4284    0.7194 H   0  0  0  0  0  0  0  0  0  0  0  0
    3.4731   -2.2266    0.9067 H   0  0  0  0  0  0  0  0  0  0  0  0
   -6.0020   -1.2114   -0.6304 H   0  0  0  0  0  0  0  0  0  0  0  0
   -5.0732    2.3082    1.8747 H   0  0  0  0  0  0  0  0  0  0  0  0
    7.6446    0.9053    1.0564 H   0  0  0  0  0  0  0  0  0  0  0  0
    7.8092    0.2528   -0.5819 H   0  0  0  0  0  0  0  0  0  0  0  0
    7.3243    1.9398   -0.3451 H   0  0  0  0  0  0  0  0  0  0  0  0
  1  6  1  0  0  0  0
  1  7  1  0  0  0  0
  2 11  1  0  0  0  0
  2 14  1  0  0  0  0
  3  5  1  0  0  0  0
  3 25  1  0  0  0  0
  4 10  1  0  0  0  0
  4 26  1  0  0  0  0
  5  6  1  0  0  0  0
  5 10  1  0  0  0  0
  5 18  1  0  0  0  0
  6  8  2  0  0  0  0
  7  9  2  0  0  0  0
  7 11  1  0  0  0  0
  8  9  1  0  0  0  0
  8 19  1  0  0  0  0
  9 20  1  0  0  0  0
 10 21  1  0  0  0  0
 10 22  1  0  0  0  0
 11 12  2  0  0  0  0
 12 13  1  0  0  0  0
 12 23  1  0  0  0  0
 13 14  2  0  0  0  0
 13 24  1  0  0  0  0
 14 15  1  0  0  0  0
 15 16  3  0  0  0  0
 16 17  1  0  0  0  0
 17 27  1  0  0  0  0
 17 28  1  0  0  0  0
 17 29  1  0  0  0  0
M  END
> <PUBCHEM_COMPOUND_CID>
46842526

> <PUBCHEM_CONFORMER_RMSD>
0.6

> <PUBCHEM_CONFORMER_DIVERSEORDER>
1
26
37
29
19
40
2
25
38
32
5
14
42
39
34
18
22
11
44
12
21
8
28
6
31
16
7
10
33
41
9
23
15
3
36
27
35
4
20
24
43
30
17
13

> <PUBCHEM_MMFF94_PARTIAL_CHARGES>
23
1 -0.08
10 0.28
11 0.04
12 -0.15
13 -0.15
14 0.06
15 -0.02
16 -0.2
17 0.2
19 0.15
2 -0.08
20 0.15
23 0.15
24 0.15
25 0.4
26 0.4
3 -0.68
4 -0.68
5 0.46
6 -0.14
7 0.04
8 -0.15
9 -0.15

> <PUBCHEM_EFFECTIVE_ROTOR_COUNT>
3

> <PUBCHEM_PHARMACOPHORE_FEATURES>
7
1 17 hydrophobe
1 3 acceptor
1 3 donor
1 4 acceptor
1 4 donor
5 1 6 7 8 9 rings
5 2 11 12 13 14 rings

> <PUBCHEM_HEAVY_ATOM_COUNT>
17

> <PUBCHEM_ATOM_DEF_STEREO_COUNT>
0

> <PUBCHEM_ATOM_UDEF_STEREO_COUNT>
1

> <PUBCHEM_BOND_DEF_STEREO_COUNT>
0

> <PUBCHEM_BOND_UDEF_STEREO_COUNT>
0

> <PUBCHEM_ISOTOPIC_ATOM_COUNT>
0

> <PUBCHEM_COMPONENT_COUNT>
1

> <PUBCHEM_CACTVS_TAUTO_COUNT>
1

> <PUBCHEM_CONFORMER_ID>
02CAC29E00000001

> <PUBCHEM_MMFF94_ENERGY>
17.8

> <PUBCHEM_FEATURE_SELFOVERLAP>
35.52

> <PUBCHEM_SHAPE_FINGERPRINT>
10 15 17022619815100031724
106641 1 18187655721620396209
10730089 173 17346885524541006456
10912923 1 18341888563454202299
11315181 36 18410855503668626509
12236239 1 17989207036390985946
12670543 26 13326863201472900272
13288520 33 11602823510322129113
13533116 47 11887689342860958356
13631057 29 18266735964892042547
13964095 4 14836411332924939216
14123238 8 18186235134710584134
1420 363 16587746417282977146
14251752 14 16056885693760075484
14251764 18 18408324389362818657
14341114 176 17385442103550995714
15048467 5 18341896277041217145
15183329 4 13398636034994873516
15196674 1 17968650515368859662
15242439 84 13254792443286285566
17834072 8 13398629446261833612
17834076 25 18273494585478520008
200 152 18410285922196191959
20645477 56 17967246507660551614
20681677 155 17203602709922654750
21065198 48 18272649005096956859
21150785 3 16558742421523845133
22224240 67 18113899385547566018
23402539 116 17131829876379439348
23536379 177 17275107224068568302
23557571 272 15502362405516654855
23559900 14 17749666406234220740
26918003 58 15213020457611170485
300161 21 18408882911004595063
3545911 37 18113335311040602606
4340502 62 15646770090188330832
474229 33 17894628175651518146
5104073 3 17241883190532860552
542803 24 17918273147267868298
559249 180 11025795405565888361
59682541 35 17531253901760199425
59755656 520 18202279221352922662
7495541 125 14923957768432092940

> <PUBCHEM_SHAPE_MULTIPOLES>
345.81
14.52
1.33
1.04
11.59
0.28
-0.19
-4.02
-2.87
0.17
-0.05
-1.45
-0.28
-0.46

> <PUBCHEM_SHAPE_SELFOVERLAP>
702.629

> <PUBCHEM_SHAPE_VOLUME>
202.2

> <PUBCHEM_COORDINATE_TYPE>
2
5
10

$$$$
