10333020
  -OEChem-09082010013D

 39 40  0     1  0  0  0  0  0999 V2000
    1.1548   -1.6806   -0.1314 O   0  0  0  0  0  0  0  0  0  0  0  0
    1.8409    2.9887   -0.4852 O   0  0  0  0  0  0  0  0  0  0  0  0
    3.3520   -2.3686   -0.3463 O   0  0  0  0  0  0  0  0  0  0  0  0
   -2.5334   -2.2814   -1.5155 O   0  0  0  0  0  0  0  0  0  0  0  0
   -1.3947    1.1638    0.4089 C   0  0  2  0  0  0  0  0  0  0  0  0
   -0.9050   -0.2649   -0.0324 C   0  0  1  0  0  0  0  0  0  0  0  0
    0.5757   -0.4503    0.3239 C   0  0  2  0  0  0  0  0  0  0  0  0
    1.4220    0.6093   -0.3552 C   0  0  1  0  0  0  0  0  0  0  0  0
   -0.4242    2.2606   -0.1173 C   0  0  0  0  0  0  0  0  0  0  0  0
    1.0651    1.9907    0.1728 C   0  0  2  0  0  0  0  0  0  0  0  0
    2.7465   -0.0274   -0.1355 C   0  0  0  0  0  0  0  0  0  0  0  0
   -1.5115    1.2948    1.9449 C   0  0  0  0  0  0  0  0  0  0  0  0
   -1.7264   -1.3842    0.5463 C   0  0  0  0  0  0  0  0  0  0  0  0
   -2.7602    1.4435   -0.1809 C   0  0  0  0  0  0  0  0  0  0  0  0
    2.5149   -1.4958   -0.2098 C   0  0  0  0  0  0  0  0  0  0  0  0
   -2.9357   -1.8122   -0.2358 C   0  0  0  0  0  0  0  0  0  0  0  0
    3.9433    0.4994    0.1251 C   0  0  0  0  0  0  0  0  0  0  0  0
   -1.4070   -1.9575    1.7164 C   0  0  0  0  0  0  0  0  0  0  0  0
   -3.0172    1.4720   -1.4930 C   0  0  0  0  0  0  0  0  0  0  0  0
   -0.9557   -0.3517   -1.1269 H   0  0  0  0  0  0  0  0  0  0  0  0
    0.7353   -0.3954    1.4097 H   0  0  0  0  0  0  0  0  0  0  0  0
    1.2618    0.5936   -1.4447 H   0  0  0  0  0  0  0  0  0  0  0  0
   -0.6916    3.2441    0.2945 H   0  0  0  0  0  0  0  0  0  0  0  0
   -0.5246    2.3841   -1.2044 H   0  0  0  0  0  0  0  0  0  0  0  0
    1.2690    2.0724    1.2458 H   0  0  0  0  0  0  0  0  0  0  0  0
   -1.7826    2.3199    2.2283 H   0  0  0  0  0  0  0  0  0  0  0  0
   -2.2890    0.6451    2.3615 H   0  0  0  0  0  0  0  0  0  0  0  0
   -0.5719    1.0660    2.4559 H   0  0  0  0  0  0  0  0  0  0  0  0
   -3.5882    1.6381    0.4972 H   0  0  0  0  0  0  0  0  0  0  0  0
    1.6960    2.9022   -1.4428 H   0  0  0  0  0  0  0  0  0  0  0  0
   -3.4557   -2.6369    0.2648 H   0  0  0  0  0  0  0  0  0  0  0  0
   -3.6626   -1.0084   -0.3570 H   0  0  0  0  0  0  0  0  0  0  0  0
    4.0811    1.5725    0.1926 H   0  0  0  0  0  0  0  0  0  0  0  0
    4.8169   -0.1250    0.2791 H   0  0  0  0  0  0  0  0  0  0  0  0
   -2.0214   -2.7598    2.1157 H   0  0  0  0  0  0  0  0  0  0  0  0
   -0.5696   -1.6688    2.3370 H   0  0  0  0  0  0  0  0  0  0  0  0
   -4.0222    1.6811   -1.8444 H   0  0  0  0  0  0  0  0  0  0  0  0
   -2.2573    1.2852   -2.2426 H   0  0  0  0  0  0  0  0  0  0  0  0
   -3.3397   -2.5501   -1.9880 H   0  0  0  0  0  0  0  0  0  0  0  0
  1  7  1  0  0  0  0
  1 15  1  0  0  0  0
  2 10  1  0  0  0  0
  2 30  1  0  0  0  0
  3 15  2  0  0  0  0
  4 16  1  0  0  0  0
  4 39  1  0  0  0  0
  5  6  1  0  0  0  0
  5  9  1  0  0  0  0
  5 12  1  0  0  0  0
  5 14  1  0  0  0  0
  6  7  1  0  0  0  0
  6 13  1  0  0  0  0
  6 20  1  0  0  0  0
  7  8  1  0  0  0  0
  7 21  1  0  0  0  0
  8 10  1  0  0  0  0
  8 11  1  0  0  0  0
  8 22  1  0  0  0  0
  9 10  1  0  0  0  0
  9 23  1  0  0  0  0
  9 24  1  0  0  0  0
 10 25  1  0  0  0  0
 11 15  1  0  0  0  0
 11 17  2  0  0  0  0
 12 26  1  0  0  0  0
 12 27  1  0  0  0  0
 12 28  1  0  0  0  0
 13 16  1  0  0  0  0
 13 18  2  0  0  0  0
 14 19  2  0  0  0  0
 14 29  1  0  0  0  0
 16 31  1  0  0  0  0
 16 32  1  0  0  0  0
 17 33  1  0  0  0  0
 17 34  1  0  0  0  0
 18 35  1  0  0  0  0
 18 36  1  0  0  0  0
 19 37  1  0  0  0  0
 19 38  1  0  0  0  0
M  END
> <PUBCHEM_COMPOUND_CID>
10333020

> <PUBCHEM_CONFORMER_RMSD>
0.6

> <PUBCHEM_CONFORMER_DIVERSEORDER>
4
5
10
8
7
3
11
2
9
12
1
6

> <PUBCHEM_MMFF94_PARTIAL_CHARGES>
26
1 -0.43
10 0.28
11 -0.12
13 -0.28
14 -0.29
15 0.71
16 0.42
17 -0.3
18 -0.3
19 -0.3
2 -0.68
29 0.15
3 -0.57
30 0.4
33 0.15
34 0.15
35 0.15
36 0.15
37 0.15
38 0.15
39 0.4
4 -0.68
5 0.14
6 0.14
7 0.28
8 0.14

> <PUBCHEM_EFFECTIVE_ROTOR_COUNT>
4

> <PUBCHEM_PHARMACOPHORE_FEATURES>
9
1 18 hydrophobe
1 19 hydrophobe
1 2 acceptor
1 2 donor
1 3 acceptor
1 4 acceptor
1 4 donor
5 1 7 8 11 15 rings
6 5 6 7 8 9 10 rings

> <PUBCHEM_HEAVY_ATOM_COUNT>
19

> <PUBCHEM_ATOM_DEF_STEREO_COUNT>
5

> <PUBCHEM_ATOM_UDEF_STEREO_COUNT>
0

> <PUBCHEM_BOND_DEF_STEREO_COUNT>
0

> <PUBCHEM_BOND_UDEF_STEREO_COUNT>
0

> <PUBCHEM_ISOTOPIC_ATOM_COUNT>
0

> <PUBCHEM_COMPONENT_COUNT>
1

> <PUBCHEM_CACTVS_TAUTO_COUNT>
1

> <PUBCHEM_CONFORMER_ID>
009DAB5C00000004

> <PUBCHEM_MMFF94_ENERGY>
59.5432

> <PUBCHEM_FEATURE_SELFOVERLAP>
45.746

> <PUBCHEM_SHAPE_FINGERPRINT>
10756046 5 18409722980553124213
10967382 1 18265336101499244064
11206711 2 18335991976872320806
11578080 2 17201904041956816259
11680986 33 18412260627662509544
12382932 28 18409172078299388168
12715332 25 18201153270391255559
12730499 353 17608361351833225981
13140716 1 18266186041394595146
13544592 271 18411408527778774592
14178342 30 18342177752365912328
14223421 5 18263936599253788754
14617773 55 17914075306415229945
14713566 1 18198897024901349131
14790565 3 17110469913427813961
16945 1 18339929207736867592
200 152 18130785723881823599
20645476 183 17024894570564185946
21501502 16 18337114591261466213
22112679 90 17201095930611453731
22802520 49 18189611829756826869
2334 1 18410302406233402482
23388829 49 18199470042105157218
23402539 116 17981876450270711972
23419403 2 17041407190856402009
23557571 272 17989211481471309718
23558518 356 17968939841403732873
23559900 14 18267297643750869986
25 1 17536309229076892669
2748010 2 18339371790133749246
3060560 45 17972576815842332197
34934 24 18336260142114717440
589210 1 18409731802347540309
69090 78 18339359643950171491
6992083 37 18126581032424160648
81228 2 18335989700518639441
8809292 202 18263089812276604546
9709674 26 18408325514164708866

> <PUBCHEM_SHAPE_MULTIPOLES>
367.53
5.32
3.1
1.25
2.78
0.11
0.31
-1.09
-1.22
-0.32
-0.28
-1.14
-0.12
0.16

> <PUBCHEM_SHAPE_SELFOVERLAP>
771.908

> <PUBCHEM_SHAPE_VOLUME>
207.3

> <PUBCHEM_COORDINATE_TYPE>
2
5
10

$$$$
