5282710
  -OEChem-09082012153D

 21 20  0     0  0  0  0  0  0999 V2000
   -3.7549   -0.0943    0.4846 O   0  0  0  0  0  0  0  0  0  0  0  0
   -2.1407   -1.4203   -0.4041 O   0  0  0  0  0  0  0  0  0  0  0  0
    2.2095    0.5739   -0.3335 C   0  0  0  0  0  0  0  0  0  0  0  0
    2.9536   -0.4583    0.5140 C   0  0  0  0  0  0  0  0  0  0  0  0
    0.8351    0.8350    0.2103 C   0  0  0  0  0  0  0  0  0  0  0  0
    4.3569   -0.7062   -0.0174 C   0  0  0  0  0  0  0  0  0  0  0  0
   -0.2917    0.6629   -0.4969 C   0  0  0  0  0  0  0  0  0  0  0  0
   -1.6625    0.9318    0.0431 C   0  0  0  0  0  0  0  0  0  0  0  0
   -2.5053   -0.3246   -0.0001 C   0  0  0  0  0  0  0  0  0  0  0  0
    2.1598    0.2306   -1.3740 H   0  0  0  0  0  0  0  0  0  0  0  0
    2.7652    1.5193   -0.3357 H   0  0  0  0  0  0  0  0  0  0  0  0
    2.4006   -1.4055    0.5227 H   0  0  0  0  0  0  0  0  0  0  0  0
    3.0210   -0.1155    1.5538 H   0  0  0  0  0  0  0  0  0  0  0  0
    0.7726    1.1918    1.2354 H   0  0  0  0  0  0  0  0  0  0  0  0
    4.3265   -1.0846   -1.0441 H   0  0  0  0  0  0  0  0  0  0  0  0
    4.8715   -1.4470    0.6025 H   0  0  0  0  0  0  0  0  0  0  0  0
    4.9485    0.2148   -0.0075 H   0  0  0  0  0  0  0  0  0  0  0  0
   -0.2255    0.3236   -1.5280 H   0  0  0  0  0  0  0  0  0  0  0  0
   -2.1458    1.6954   -0.5752 H   0  0  0  0  0  0  0  0  0  0  0  0
   -1.6211    1.2837    1.0796 H   0  0  0  0  0  0  0  0  0  0  0  0
   -4.3091   -0.9035    0.4644 H   0  0  0  0  0  0  0  0  0  0  0  0
  1  9  1  0  0  0  0
  1 21  1  0  0  0  0
  2  9  2  0  0  0  0
  3  4  1  0  0  0  0
  3  5  1  0  0  0  0
  3 10  1  0  0  0  0
  3 11  1  0  0  0  0
  4  6  1  0  0  0  0
  4 12  1  0  0  0  0
  4 13  1  0  0  0  0
  5  7  2  0  0  0  0
  5 14  1  0  0  0  0
  6 15  1  0  0  0  0
  6 16  1  0  0  0  0
  6 17  1  0  0  0  0
  7  8  1  0  0  0  0
  7 18  1  0  0  0  0
  8  9  1  0  0  0  0
  8 19  1  0  0  0  0
  8 20  1  0  0  0  0
M  END
> <PUBCHEM_COMPOUND_CID>
5282710

> <PUBCHEM_CONFORMER_RMSD>
0.6

> <PUBCHEM_CONFORMER_DIVERSEORDER>
1
27
19
28
5
23
3
11
6
10
25
8
29
15
4
26
22
18
9
21
20
2
17
24
14
12
7
16
13

> <PUBCHEM_MMFF94_PARTIAL_CHARGES>
10
1 -0.65
14 0.15
18 0.15
2 -0.57
21 0.5
3 0.14
5 -0.29
7 -0.29
8 0.2
9 0.66

> <PUBCHEM_EFFECTIVE_ROTOR_COUNT>
4

> <PUBCHEM_PHARMACOPHORE_FEATURES>
4
1 1 acceptor
1 2 acceptor
1 6 hydrophobe
3 1 2 9 anion

> <PUBCHEM_HEAVY_ATOM_COUNT>
9

> <PUBCHEM_ATOM_DEF_STEREO_COUNT>
0

> <PUBCHEM_ATOM_UDEF_STEREO_COUNT>
0

> <PUBCHEM_BOND_DEF_STEREO_COUNT>
1

> <PUBCHEM_BOND_UDEF_STEREO_COUNT>
0

> <PUBCHEM_ISOTOPIC_ATOM_COUNT>
0

> <PUBCHEM_COMPONENT_COUNT>
1

> <PUBCHEM_CACTVS_TAUTO_COUNT>
1

> <PUBCHEM_CONFORMER_ID>
00509B9600000001

> <PUBCHEM_MMFF94_ENERGY>
-0.2745

> <PUBCHEM_FEATURE_SELFOVERLAP>
20.356

> <PUBCHEM_SHAPE_FINGERPRINT>
10149128 111 10735875101537966850
11062470 55 11455889156920463952
12162725 195 9439410129042122422
12932764 1 17822280280373480660
14390081 3 9007060175257751540
177051 138 18413387644323970670
18342897 69 18410851036596839584
20281407 28 18410571782165622208
20645464 45 16774081769291112253
20653085 51 8141268482976522213
20711983 171 11386630919460648827
21293036 1 14273459180095191212
22169311 14 17275100647898755234
22485316 2 18408879629565093936
23402539 116 17703502226049086325
3248919 1 17274831276066245861

> <PUBCHEM_SHAPE_MULTIPOLES>
173.48
7.17
1.14
0.71
2.9
0.11
0
2.49
-0.65
-0.22
0.08
0.04
0
-0.17

> <PUBCHEM_SHAPE_SELFOVERLAP>
317.453

> <PUBCHEM_SHAPE_VOLUME>
110.1

> <PUBCHEM_COORDINATE_TYPE>
2
5
10

$$$$
