71587384
  -OEChem-09082010333D

 28 29  0     1  0  0  0  0  0999 V2000
   -1.3585   -1.0103    0.6614 S   0  0  0  0  0  0  0  0  0  0  0  0
    2.3401    0.8019   -0.4159 S   0  0  0  0  0  0  0  0  0  0  0  0
   -4.7236   -1.2094   -0.9131 O   0  0  0  0  0  0  0  0  0  0  0  0
   -4.3257    1.2916    1.6754 O   0  0  0  0  0  0  0  0  0  0  0  0
   -5.8326    1.0668   -0.0019 O   0  0  0  0  0  0  0  0  0  0  0  0
   -2.6397   -0.2774   -0.2067 C   0  0  0  0  0  0  0  0  0  0  0  0
   -0.1828   -0.2242   -0.3038 C   0  0  0  0  0  0  0  0  0  0  0  0
   -4.0385   -0.5754    0.1699 C   0  0  1  0  0  0  0  0  0  0  0  0
    1.2016   -0.4297   -0.0706 C   0  0  0  0  0  0  0  0  0  0  0  0
   -2.1794    0.5478   -1.2091 C   0  0  0  0  0  0  0  0  0  0  0  0
   -0.7561    0.5785   -1.2654 C   0  0  0  0  0  0  0  0  0  0  0  0
    1.8026   -1.5634    0.4306 C   0  0  0  0  0  0  0  0  0  0  0  0
    3.2164   -1.4189    0.5325 C   0  0  0  0  0  0  0  0  0  0  0  0
    3.6420   -0.1804    0.1054 C   0  0  0  0  0  0  0  0  0  0  0  0
   -4.8405    0.6596    0.5883 C   0  0  0  0  0  0  0  0  0  0  0  0
    4.9985    0.2543    0.0894 C   0  0  0  0  0  0  0  0  0  0  0  0
    6.1421    0.6211    0.0757 C   0  0  0  0  0  0  0  0  0  0  0  0
    7.5343    1.0676    0.0578 C   0  0  0  0  0  0  0  0  0  0  0  0
   -4.0983   -1.2777    1.0095 H   0  0  0  0  0  0  0  0  0  0  0  0
   -2.8275    1.1039   -1.8746 H   0  0  0  0  0  0  0  0  0  0  0  0
   -0.2035    1.1629   -1.9908 H   0  0  0  0  0  0  0  0  0  0  0  0
    1.2770   -2.4684    0.7098 H   0  0  0  0  0  0  0  0  0  0  0  0
    3.8795   -2.1924    0.9006 H   0  0  0  0  0  0  0  0  0  0  0  0
   -4.7369   -0.5928   -1.6652 H   0  0  0  0  0  0  0  0  0  0  0  0
   -4.8468    2.0870    1.9164 H   0  0  0  0  0  0  0  0  0  0  0  0
    7.9118    1.2059    1.0754 H   0  0  0  0  0  0  0  0  0  0  0  0
    8.1720    0.3335   -0.4439 H   0  0  0  0  0  0  0  0  0  0  0  0
    7.6309    2.0198   -0.4724 H   0  0  0  0  0  0  0  0  0  0  0  0
  1  6  1  0  0  0  0
  1  7  1  0  0  0  0
  2  9  1  0  0  0  0
  2 14  1  0  0  0  0
  3  8  1  0  0  0  0
  3 24  1  0  0  0  0
  4 15  1  0  0  0  0
  4 25  1  0  0  0  0
  5 15  2  0  0  0  0
  6  8  1  0  0  0  0
  6 10  2  0  0  0  0
  7  9  1  0  0  0  0
  7 11  2  0  0  0  0
  8 15  1  0  0  0  0
  8 19  1  0  0  0  0
  9 12  2  0  0  0  0
 10 11  1  0  0  0  0
 10 20  1  0  0  0  0
 11 21  1  0  0  0  0
 12 13  1  0  0  0  0
 12 22  1  0  0  0  0
 13 14  2  0  0  0  0
 13 23  1  0  0  0  0
 14 16  1  0  0  0  0
 16 17  3  0  0  0  0
 17 18  1  0  0  0  0
 18 26  1  0  0  0  0
 18 27  1  0  0  0  0
 18 28  1  0  0  0  0
M  END
> <PUBCHEM_COMPOUND_CID>
71587384

> <PUBCHEM_CONFORMER_RMSD>
0.6

> <PUBCHEM_CONFORMER_DIVERSEORDER>
1
11
20
15
38
24
42
28
26
35
41
7
36
34
33
18
10
16
9
29
5
37
13
19
39
14
22
31
25
3
6
12
30
4
8
32
40
2
21
17
27
23

> <PUBCHEM_MMFF94_PARTIAL_CHARGES>
24
1 -0.08
10 -0.15
11 -0.15
12 -0.15
13 -0.15
14 0.06
15 0.66
16 -0.02
17 -0.2
18 0.2
2 -0.08
20 0.15
21 0.15
22 0.15
23 0.15
24 0.4
25 0.5
3 -0.68
4 -0.65
5 -0.57
6 -0.14
7 0.04
8 0.52
9 0.04

> <PUBCHEM_EFFECTIVE_ROTOR_COUNT>
3

> <PUBCHEM_PHARMACOPHORE_FEATURES>
8
1 18 hydrophobe
1 3 acceptor
1 3 donor
1 4 acceptor
1 5 acceptor
3 4 5 15 anion
5 1 6 7 10 11 rings
5 2 9 12 13 14 rings

> <PUBCHEM_HEAVY_ATOM_COUNT>
18

> <PUBCHEM_ATOM_DEF_STEREO_COUNT>
0

> <PUBCHEM_ATOM_UDEF_STEREO_COUNT>
1

> <PUBCHEM_BOND_DEF_STEREO_COUNT>
0

> <PUBCHEM_BOND_UDEF_STEREO_COUNT>
0

> <PUBCHEM_ISOTOPIC_ATOM_COUNT>
0

> <PUBCHEM_COMPONENT_COUNT>
1

> <PUBCHEM_CACTVS_TAUTO_COUNT>
1

> <PUBCHEM_CONFORMER_ID>
0444563800000001

> <PUBCHEM_MMFF94_ENERGY>
17.0652

> <PUBCHEM_FEATURE_SELFOVERLAP>
40.662

> <PUBCHEM_SHAPE_FINGERPRINT>
10 15 17095241449976098932
106641 1 18186810197109986665
10730089 173 17346884429419259008
11089746 13 17988640822236338408
11315181 36 18410572929233100623
12107183 9 17550956884221671003
12236239 1 18060419114677360998
12670543 26 13398639324855406624
13631057 29 18267017444111005435
13760787 19 17775279452610544471
1420 363 16298387946585824762
14251731 8 14189575247689518316
14251752 14 16128660721962864172
14251764 18 18335139804380388251
14341114 176 17385441008397664714
14350574 20 11239996754571966211
14849402 71 18267026244557173240
15048467 5 18412826875897561160
15183329 4 13326859924639589956
15242439 84 13470684854314382342
17834072 8 13542463168156615812
19489759 90 17489870436433353899
200 152 18410568500831869535
20645477 56 17967808358170910470
20681677 155 17417805175884402558
21150785 3 16415756440258019213
21503847 285 17346308324123207624
22224240 67 18040151846807175538
23402539 116 18272083907385327757
23536379 177 17346601872516646486
23559900 14 17895188969372938964
26918003 58 15719396135558025389
300161 21 18409164394391996183
3004659 81 14045473245997049028
3014965 18 16056610803168690380
3545911 37 18040714767117825150
4340502 62 15647050465716671760
4463277 17 18412544314848051388
5104073 3 17241598421548290416
542803 24 17918273147405044322
559249 180 10809337849866527521
5758199 1 18335702767403243488
59682541 35 17386011714424122128
59755656 520 18202278121920403222
7495541 125 14779561105432221956

> <PUBCHEM_SHAPE_MULTIPOLES>
360.52
15.51
1.35
1.02
12.07
0.31
-0.11
-5.43
-3.03
0.22
-0.07
-1.23
-0.21
-0.5

> <PUBCHEM_SHAPE_SELFOVERLAP>
740.628

> <PUBCHEM_SHAPE_VOLUME>
208.2

> <PUBCHEM_COORDINATE_TYPE>
2
5
10

$$$$
