5281423
  -OEChem-09082009553D

 51 52  0     1  0  0  0  0  0999 V2000
   -2.2410    2.3753    0.3691 O   0  0  0  0  0  0  0  0  0  0  0  0
    2.1656    0.6462    0.0429 O   0  0  0  0  0  0  0  0  0  0  0  0
   -1.5082    4.5527    0.3342 O   0  0  0  0  0  0  0  0  0  0  0  0
   -5.3225   -0.6327   -1.0036 O   0  0  0  0  0  0  0  0  0  0  0  0
    3.0844   -0.7533   -1.5435 O   0  0  0  0  0  0  0  0  0  0  0  0
    4.2701   -2.4782    0.6926 O   0  0  0  0  0  0  0  0  0  0  0  0
   -0.1687    1.2192    0.4013 C   0  0  2  0  0  0  0  0  0  0  0  0
    0.8244    0.2100   -0.2468 C   0  0  2  0  0  0  0  0  0  0  0  0
   -1.6609    1.1047    0.0234 C   0  0  1  0  0  0  0  0  0  0  0  0
    0.8059   -1.2592    0.2563 C   0  0  0  0  0  0  0  0  0  0  0  0
   -0.0043    2.6760    0.0424 C   0  0  0  0  0  0  0  0  0  0  0  0
   -2.4167    0.0485    0.7691 C   0  0  0  0  0  0  0  0  0  0  0  0
   -0.3658   -2.1237   -0.1452 C   0  0  0  0  0  0  0  0  0  0  0  0
   -1.3029    3.3554    0.2550 C   0  0  0  0  0  0  0  0  0  0  0  0
   -3.3004   -0.8274    0.2449 C   0  0  0  0  0  0  0  0  0  0  0  0
   -3.5839   -2.1162    1.0012 C   0  0  0  0  0  0  0  0  0  0  0  0
   -2.5447   -3.2070    0.6367 C   0  0  0  0  0  0  0  0  0  0  0  0
   -1.1466   -2.6653    0.8144 C   0  0  0  0  0  0  0  0  0  0  0  0
    1.0169    3.3804   -0.4544 C   0  0  0  0  0  0  0  0  0  0  0  0
   -0.6009   -2.2528   -1.6242 C   0  0  0  0  0  0  0  0  0  0  0  0
    3.1540   -0.1178   -0.4993 C   0  0  0  0  0  0  0  0  0  0  0  0
   -3.9159   -0.7278   -1.1211 C   0  0  0  0  0  0  0  0  0  0  0  0
    4.3704   -0.0876    0.4126 C   0  0  1  0  0  0  0  0  0  0  0  0
    5.1264   -1.4099    0.3051 C   0  0  0  0  0  0  0  0  0  0  0  0
    5.2654    1.0906    0.0369 C   0  0  0  0  0  0  0  0  0  0  0  0
   -0.0456    1.1648    1.4931 H   0  0  0  0  0  0  0  0  0  0  0  0
    0.6919    0.2461   -1.3358 H   0  0  0  0  0  0  0  0  0  0  0  0
   -1.7575    0.9793   -1.0615 H   0  0  0  0  0  0  0  0  0  0  0  0
    0.8961   -1.2220    1.3520 H   0  0  0  0  0  0  0  0  0  0  0  0
    1.6789   -1.8428   -0.0467 H   0  0  0  0  0  0  0  0  0  0  0  0
   -2.0775   -0.1154    1.7917 H   0  0  0  0  0  0  0  0  0  0  0  0
   -3.5536   -1.9325    2.0836 H   0  0  0  0  0  0  0  0  0  0  0  0
   -4.5955   -2.4794    0.7868 H   0  0  0  0  0  0  0  0  0  0  0  0
   -2.7230   -3.5631   -0.3819 H   0  0  0  0  0  0  0  0  0  0  0  0
   -2.6786   -4.0744    1.2932 H   0  0  0  0  0  0  0  0  0  0  0  0
   -0.8570   -2.5291    1.8560 H   0  0  0  0  0  0  0  0  0  0  0  0
    1.9812    2.9375   -0.6654 H   0  0  0  0  0  0  0  0  0  0  0  0
    0.9219    4.4392   -0.6756 H   0  0  0  0  0  0  0  0  0  0  0  0
   -1.3187   -3.0366   -1.8765 H   0  0  0  0  0  0  0  0  0  0  0  0
    0.3355   -2.5150   -2.1287 H   0  0  0  0  0  0  0  0  0  0  0  0
   -0.9650   -1.3119   -2.0464 H   0  0  0  0  0  0  0  0  0  0  0  0
   -3.6806   -1.6163   -1.7150 H   0  0  0  0  0  0  0  0  0  0  0  0
   -3.5777    0.1407   -1.6902 H   0  0  0  0  0  0  0  0  0  0  0  0
    4.0136    0.0232    1.4446 H   0  0  0  0  0  0  0  0  0  0  0  0
    5.4644   -1.6045   -0.7182 H   0  0  0  0  0  0  0  0  0  0  0  0
    6.0040   -1.4187    0.9598 H   0  0  0  0  0  0  0  0  0  0  0  0
    5.6177    1.0078   -0.9972 H   0  0  0  0  0  0  0  0  0  0  0  0
    4.7192    2.0362    0.1226 H   0  0  0  0  0  0  0  0  0  0  0  0
    6.1391    1.1421    0.6945 H   0  0  0  0  0  0  0  0  0  0  0  0
   -5.5252    0.1774   -0.5049 H   0  0  0  0  0  0  0  0  0  0  0  0
    3.9939   -2.3151    1.6106 H   0  0  0  0  0  0  0  0  0  0  0  0
  1  9  1  0  0  0  0
  1 14  1  0  0  0  0
  2  8  1  0  0  0  0
  2 21  1  0  0  0  0
  3 14  2  0  0  0  0
  4 22  1  0  0  0  0
  4 50  1  0  0  0  0
  5 21  2  0  0  0  0
  6 24  1  0  0  0  0
  6 51  1  0  0  0  0
  7  8  1  0  0  0  0
  7  9  1  0  0  0  0
  7 11  1  0  0  0  0
  7 26  1  0  0  0  0
  8 10  1  0  0  0  0
  8 27  1  0  0  0  0
  9 12  1  0  0  0  0
  9 28  1  0  0  0  0
 10 13  1  0  0  0  0
 10 29  1  0  0  0  0
 10 30  1  0  0  0  0
 11 14  1  0  0  0  0
 11 19  2  0  0  0  0
 12 15  2  0  0  0  0
 12 31  1  0  0  0  0
 13 18  2  0  0  0  0
 13 20  1  0  0  0  0
 15 16  1  0  0  0  0
 15 22  1  0  0  0  0
 16 17  1  0  0  0  0
 16 32  1  0  0  0  0
 16 33  1  0  0  0  0
 17 18  1  0  0  0  0
 17 34  1  0  0  0  0
 17 35  1  0  0  0  0
 18 36  1  0  0  0  0
 19 37  1  0  0  0  0
 19 38  1  0  0  0  0
 20 39  1  0  0  0  0
 20 40  1  0  0  0  0
 20 41  1  0  0  0  0
 21 23  1  0  0  0  0
 22 42  1  0  0  0  0
 22 43  1  0  0  0  0
 23 24  1  0  0  0  0
 23 25  1  0  0  0  0
 23 44  1  0  0  0  0
 24 45  1  0  0  0  0
 24 46  1  0  0  0  0
 25 47  1  0  0  0  0
 25 48  1  0  0  0  0
 25 49  1  0  0  0  0
M  END
> <PUBCHEM_COMPOUND_CID>
5281423

> <PUBCHEM_CONFORMER_RMSD>
0.8

> <PUBCHEM_CONFORMER_DIVERSEORDER>
2
24
47
69
27
58
71
28
56
15
50
35
31
46
29
72
52
39
61
51
63
1
60
66
40
20
53
43
17
49
21
8
55
32
22
34
65
6
45
62
70
38
67
18
64
14
37
36
25
12
13
44
23
41
33
11
68
26
30
54
19
57
48
4
5
7
59
16
3
42
9
10

> <PUBCHEM_MMFF94_PARTIAL_CHARGES>
30
1 -0.43
10 0.14
11 -0.12
12 -0.29
13 -0.28
14 0.71
15 -0.28
16 0.14
17 0.14
18 -0.29
19 -0.3
2 -0.43
20 0.14
21 0.66
22 0.42
23 0.06
24 0.28
3 -0.57
31 0.15
36 0.15
37 0.15
38 0.15
4 -0.68
5 -0.57
50 0.4
51 0.4
6 -0.68
7 0.14
8 0.28
9 0.42

> <PUBCHEM_EFFECTIVE_ROTOR_COUNT>
6

> <PUBCHEM_PHARMACOPHORE_FEATURES>
8
1 25 hydrophobe
1 3 acceptor
1 4 acceptor
1 4 donor
1 5 acceptor
1 6 acceptor
1 6 donor
5 1 7 9 11 14 rings

> <PUBCHEM_HEAVY_ATOM_COUNT>
25

> <PUBCHEM_ATOM_DEF_STEREO_COUNT>
3

> <PUBCHEM_ATOM_UDEF_STEREO_COUNT>
1

> <PUBCHEM_BOND_DEF_STEREO_COUNT>
2

> <PUBCHEM_BOND_UDEF_STEREO_COUNT>
0

> <PUBCHEM_ISOTOPIC_ATOM_COUNT>
0

> <PUBCHEM_COMPONENT_COUNT>
1

> <PUBCHEM_CACTVS_TAUTO_COUNT>
1

> <PUBCHEM_CONFORMER_ID>
0050968F00000002

> <PUBCHEM_MMFF94_ENERGY>
66.5768

> <PUBCHEM_FEATURE_SELFOVERLAP>
40.598

> <PUBCHEM_SHAPE_FINGERPRINT>
10319926 262 18268414769366562266
10411042 1 18266465497362350939
10906281 52 18341067250128081781
10930396 42 17981285111195349314
10967382 1 17907024224203495401
1100329 8 18337113487776293475
11578080 2 17388516461904556132
11680986 33 18052253187525152985
12107183 9 17758110398755485490
12422481 6 18055941834409504403
12553582 1 18266481921200622445
12788726 201 18409738356905256594
13004483 165 18339067259751195856
13140716 1 18194412301512774443
138480 1 15743317823101092881
14142880 1 18130520638922152251
14790565 3 17763749793562681809
15042514 8 18409174281190317082
15927050 60 17692531113974226533
16752209 62 18336260141972455266
20510252 161 18342742875514983848
20642791 13 18272370819991705669
20775438 99 17119125226070127447
21029758 11 18411696625421053529
21285901 2 17988650670211109983
23402539 116 18342171150658325647
23557571 272 18271815601358920076
23558518 356 18050288063898978479
23559900 14 18265328585465024216
238 59 17693066962995000295
2748010 2 17472441862752461577
283562 15 18340484469978313193
3091708 16 9060661337031327400
3178227 256 18262815055319770483
335352 9 18409450327898162199
34934 24 18338793537254160714
5104073 3 18341611469955609152
70251023 43 17690551305776427843
7226269 152 18334572473259794162
81228 2 18340784671038567728
9709674 26 18269844129639304262

> <PUBCHEM_SHAPE_MULTIPOLES>
479.27
8.84
4.63
1.05
7.17
4.21
-0.3
-4.74
-0.14
-1.74
0.67
-0.41
-0.53
-0.11

> <PUBCHEM_SHAPE_SELFOVERLAP>
985.455

> <PUBCHEM_SHAPE_VOLUME>
274.3

> <PUBCHEM_COORDINATE_TYPE>
2
5
10

$$$$
