13939273
  -OEChem-09082010313D

 25 26  0     0  0  0  0  0  0999 V2000
    2.4014   -0.8963   -0.5382 S   0  0  0  0  0  0  0  0  0  0  0  0
   -1.4159    0.9436   -0.1282 S   0  0  0  0  0  0  0  0  0  0  0  0
    5.6681   -0.6590    0.5432 O   0  0  0  0  0  0  0  0  0  0  0  0
    1.1969    0.1827    0.0245 C   0  0  0  0  0  0  0  0  0  0  0  0
   -0.1658   -0.2105    0.0666 C   0  0  0  0  0  0  0  0  0  0  0  0
    3.6359    0.2620   -0.2806 C   0  0  0  0  0  0  0  0  0  0  0  0
    1.7258    1.3979    0.3997 C   0  0  0  0  0  0  0  0  0  0  0  0
    3.1388    1.4441    0.2230 C   0  0  0  0  0  0  0  0  0  0  0  0
   -0.6609   -1.4820    0.2553 C   0  0  0  0  0  0  0  0  0  0  0  0
    5.0375   -0.0853   -0.6006 C   0  0  0  0  0  0  0  0  0  0  0  0
   -2.0854   -1.5093    0.2395 C   0  0  0  0  0  0  0  0  0  0  0  0
   -2.6246   -0.2577    0.0396 C   0  0  0  0  0  0  0  0  0  0  0  0
   -4.0185    0.0294   -0.0247 C   0  0  0  0  0  0  0  0  0  0  0  0
   -5.2012    0.2731   -0.0778 C   0  0  0  0  0  0  0  0  0  0  0  0
   -6.6319    0.5673   -0.1414 C   0  0  0  0  0  0  0  0  0  0  0  0
    1.1498    2.2265    0.7930 H   0  0  0  0  0  0  0  0  0  0  0  0
    3.7557    2.3023    0.4570 H   0  0  0  0  0  0  0  0  0  0  0  0
   -0.0522   -2.3648    0.4078 H   0  0  0  0  0  0  0  0  0  0  0  0
    5.1194   -0.7900   -1.4349 H   0  0  0  0  0  0  0  0  0  0  0  0
    5.6030    0.8112   -0.8754 H   0  0  0  0  0  0  0  0  0  0  0  0
   -2.6756   -2.4080    0.3712 H   0  0  0  0  0  0  0  0  0  0  0  0
    5.2166   -1.4990    0.7350 H   0  0  0  0  0  0  0  0  0  0  0  0
   -6.9325    0.8188   -1.1630 H   0  0  0  0  0  0  0  0  0  0  0  0
   -7.2215   -0.2953    0.1832 H   0  0  0  0  0  0  0  0  0  0  0  0
   -6.8844    1.4135    0.5046 H   0  0  0  0  0  0  0  0  0  0  0  0
  1  4  1  0  0  0  0
  1  6  1  0  0  0  0
  2  5  1  0  0  0  0
  2 12  1  0  0  0  0
  3 10  1  0  0  0  0
  3 22  1  0  0  0  0
  4  5  1  0  0  0  0
  4  7  2  0  0  0  0
  5  9  2  0  0  0  0
  6  8  2  0  0  0  0
  6 10  1  0  0  0  0
  7  8  1  0  0  0  0
  7 16  1  0  0  0  0
  8 17  1  0  0  0  0
  9 11  1  0  0  0  0
  9 18  1  0  0  0  0
 10 19  1  0  0  0  0
 10 20  1  0  0  0  0
 11 12  2  0  0  0  0
 11 21  1  0  0  0  0
 12 13  1  0  0  0  0
 13 14  3  0  0  0  0
 14 15  1  0  0  0  0
 15 23  1  0  0  0  0
 15 24  1  0  0  0  0
 15 25  1  0  0  0  0
M  END
> <PUBCHEM_COMPOUND_CID>
13939273

> <PUBCHEM_CONFORMER_RMSD>
0.6

> <PUBCHEM_CONFORMER_DIVERSEORDER>
2
5
4
6
1
3

> <PUBCHEM_MMFF94_PARTIAL_CHARGES>
20
1 -0.08
10 0.46
11 -0.15
12 0.06
13 -0.02
14 -0.2
15 0.2
16 0.15
17 0.15
18 0.15
2 -0.08
21 0.15
22 0.4
3 -0.68
4 0.04
5 0.04
6 -0.14
7 -0.15
8 -0.15
9 -0.15

> <PUBCHEM_EFFECTIVE_ROTOR_COUNT>
2

> <PUBCHEM_PHARMACOPHORE_FEATURES>
5
1 15 hydrophobe
1 3 acceptor
1 3 donor
5 1 4 6 7 8 rings
5 2 5 9 11 12 rings

> <PUBCHEM_HEAVY_ATOM_COUNT>
15

> <PUBCHEM_ATOM_DEF_STEREO_COUNT>
0

> <PUBCHEM_ATOM_UDEF_STEREO_COUNT>
0

> <PUBCHEM_BOND_DEF_STEREO_COUNT>
0

> <PUBCHEM_BOND_UDEF_STEREO_COUNT>
0

> <PUBCHEM_ISOTOPIC_ATOM_COUNT>
0

> <PUBCHEM_COMPONENT_COUNT>
1

> <PUBCHEM_CACTVS_TAUTO_COUNT>
1

> <PUBCHEM_CONFORMER_ID>
00D4B24900000002

> <PUBCHEM_MMFF94_ENERGY>
14.1026

> <PUBCHEM_FEATURE_SELFOVERLAP>
25.371

> <PUBCHEM_SHAPE_FINGERPRINT>
10354089 29 13551191091209943148
11401426 45 17775283876262977942
11471102 20 18272936041855784172
12236239 1 16515407377916391263
124424 183 18342179989911958826
13533116 47 13973693784796901292
14115302 16 18260558856799852950
14123238 8 9367347037266733573
14251718 22 11743839162007548643
14251764 18 18335135427761253834
14911166 2 18412827992815709917
15048467 5 17894918464212149084
15099037 51 18412546517733608255
15196674 1 18339080513598291073
15242439 84 18411141350399857015
15531645 54 18410294704903028749
17834072 33 17917709141253535407
17834072 8 18412831287097824148
17834076 25 17385724695071542629
18186145 218 18114451366175430189
18522853 276 18202566172570794648
187816 3 17918276450445852779
200 152 17275106132577169247
20279233 1 18272943734036800934
20281389 69 17967531272645884965
20645477 56 18260548935583745503
20645477 70 17988649544998542382
21267235 1 18411991247118330574
212847 35 18334860532368706476
21285901 2 18340778022413493372
2215653 11 18201728336078297054
23218964 4 18334857207826369579
23402539 116 18273209816161679893
23402655 69 18202001015141196773
23559900 14 18342456002017615528
26918003 58 18343866631879535763
29717793 49 16917076550686646716
3004659 81 18260271820426329070
335352 9 18410856568583249902
351380 180 18272369780187100645
3545911 37 18408887339179226191
366044 4 18409167718923705539
4047638 21 18410012151894827537
4072396 5 18271518728877064794
42788 4 18411138039507650981
495365 180 17632285822139463016
4990 188 18130793360650109199
5104073 3 18339926042546145554
542803 24 16298106505578501382
59755656 215 18336549321925452575
59755656 520 17821443582612130779
633830 44 17895751936548290858
69090 78 18272368693898134479

> <PUBCHEM_SHAPE_MULTIPOLES>
310.52
12.8
1.38
0.71
7.71
0.07
-0.02
-1.49
-0.82
-0.3
0.13
-0.24
0.02
0.26

> <PUBCHEM_SHAPE_SELFOVERLAP>
631.953

> <PUBCHEM_SHAPE_VOLUME>
181.1

> <PUBCHEM_COORDINATE_TYPE>
2
5
10

$$$$
