519324
  -OEChem-09082012513D

 26 25  0     0  0  0  0  0  0999 V2000
    0.2280   -0.2524   -0.9121 C   0  0  0  0  0  0  0  0  0  0  0  0
    1.5823   -0.9480   -0.7201 C   0  0  0  0  0  0  0  0  0  0  0  0
   -0.5092    0.0046    0.4097 C   0  0  0  0  0  0  0  0  0  0  0  0
    2.5965   -0.1510    0.0666 C   0  0  0  0  0  0  0  0  0  0  0  0
   -1.8765    0.6202    0.1968 C   0  0  0  0  0  0  0  0  0  0  0  0
    2.9733    1.1991   -0.4720 C   0  0  0  0  0  0  0  0  0  0  0  0
    3.1616   -0.6413    1.1808 C   0  0  0  0  0  0  0  0  0  0  0  0
   -3.0527   -0.2253    0.0384 C   0  0  0  0  0  0  0  0  0  0  0  0
   -2.0133    1.9577    0.1808 C   0  0  0  0  0  0  0  0  0  0  0  0
   -3.0901   -1.5636    0.0311 C   0  0  0  0  0  0  0  0  0  0  0  0
    0.3598    0.6892   -1.4594 H   0  0  0  0  0  0  0  0  0  0  0  0
   -0.3907   -0.8928   -1.5540 H   0  0  0  0  0  0  0  0  0  0  0  0
    1.4120   -1.9257   -0.2512 H   0  0  0  0  0  0  0  0  0  0  0  0
    2.0078   -1.1588   -1.7096 H   0  0  0  0  0  0  0  0  0  0  0  0
    0.0920    0.6862    1.0267 H   0  0  0  0  0  0  0  0  0  0  0  0
   -0.5785   -0.9160    1.0007 H   0  0  0  0  0  0  0  0  0  0  0  0
    3.2839    1.1179   -1.5187 H   0  0  0  0  0  0  0  0  0  0  0  0
    3.8056    1.6443    0.0839 H   0  0  0  0  0  0  0  0  0  0  0  0
    2.1287    1.8919   -0.4099 H   0  0  0  0  0  0  0  0  0  0  0  0
    2.8986   -1.6218    1.5635 H   0  0  0  0  0  0  0  0  0  0  0  0
    3.8987   -0.0725    1.7378 H   0  0  0  0  0  0  0  0  0  0  0  0
   -4.0033    0.2917   -0.0854 H   0  0  0  0  0  0  0  0  0  0  0  0
   -1.1552    2.6111    0.3041 H   0  0  0  0  0  0  0  0  0  0  0  0
   -2.9771    2.4373    0.0414 H   0  0  0  0  0  0  0  0  0  0  0  0
   -4.0385   -2.0764   -0.0947 H   0  0  0  0  0  0  0  0  0  0  0  0
   -2.2074   -2.1823    0.1385 H   0  0  0  0  0  0  0  0  0  0  0  0
  1  2  1  0  0  0  0
  1  3  1  0  0  0  0
  1 11  1  0  0  0  0
  1 12  1  0  0  0  0
  2  4  1  0  0  0  0
  2 13  1  0  0  0  0
  2 14  1  0  0  0  0
  3  5  1  0  0  0  0
  3 15  1  0  0  0  0
  3 16  1  0  0  0  0
  4  6  1  0  0  0  0
  4  7  2  0  0  0  0
  5  8  1  0  0  0  0
  5  9  2  0  0  0  0
  6 17  1  0  0  0  0
  6 18  1  0  0  0  0
  6 19  1  0  0  0  0
  7 20  1  0  0  0  0
  7 21  1  0  0  0  0
  8 10  2  0  0  0  0
  8 22  1  0  0  0  0
  9 23  1  0  0  0  0
  9 24  1  0  0  0  0
 10 25  1  0  0  0  0
 10 26  1  0  0  0  0
M  END
> <PUBCHEM_COMPOUND_CID>
519324

> <PUBCHEM_CONFORMER_RMSD>
0.6

> <PUBCHEM_CONFORMER_DIVERSEORDER>
1
68
6
56
47
58
17
36
54
59
69
40
55
45
7
10
48
12
29
63
27
72
15
43
61
42
39
9
19
64
70
28
38
44
21
41
35
18
3
8
71
22
53
50
67
31
60
33
5
57
14
37
34
46
25
65
20
32
51
66
62
49
4
23
2
30
11
13
26
52
16
24

> <PUBCHEM_MMFF94_PARTIAL_CHARGES>
16
10 -0.3
2 0.14
20 0.15
21 0.15
22 0.15
23 0.15
24 0.15
25 0.15
26 0.15
3 0.14
4 -0.28
5 -0.14
6 0.14
7 -0.3
8 -0.15
9 -0.3

> <PUBCHEM_EFFECTIVE_ROTOR_COUNT>
5

> <PUBCHEM_PHARMACOPHORE_FEATURES>
4
1 10 hydrophobe
1 9 hydrophobe
3 1 2 4 hydrophobe
3 3 5 8 hydrophobe

> <PUBCHEM_HEAVY_ATOM_COUNT>
10

> <PUBCHEM_ATOM_DEF_STEREO_COUNT>
0

> <PUBCHEM_ATOM_UDEF_STEREO_COUNT>
0

> <PUBCHEM_BOND_DEF_STEREO_COUNT>
0

> <PUBCHEM_BOND_UDEF_STEREO_COUNT>
0

> <PUBCHEM_ISOTOPIC_ATOM_COUNT>
0

> <PUBCHEM_COMPONENT_COUNT>
1

> <PUBCHEM_CACTVS_TAUTO_COUNT>
1

> <PUBCHEM_CONFORMER_ID>
0007EC9C00000001

> <PUBCHEM_MMFF94_ENERGY>
10.4912

> <PUBCHEM_FEATURE_SELFOVERLAP>
20.756

> <PUBCHEM_SHAPE_FINGERPRINT>
107287 299 17132126740049918118
10857977 72 18131068251178165251
11062470 55 17676205801210326903
12162725 195 18408041792872369808
12716758 59 18125728889727941379
12932764 1 17749679484472706724
14325111 11 18411984645832711452
14390081 3 17489020453288215192
170605 34 18336834199164926148
177051 138 18408039615287215898
190213 19 12823297896663513331
19973954 147 18270971119903214108
20711985 344 13407897144068372790
21028194 46 17847061065003167070
21061003 4 17060060371499098161
230 275 16845283917908361634
23402539 116 18339345372111710861
3248919 1 18343017744509973309
57812782 119 18341888576212152578

> <PUBCHEM_SHAPE_MULTIPOLES>
205.8
6.1
1.57
0.94
0.65
0.45
0.05
-0.61
0.84
-0.91
-0.01
0.59
-0.12
-0.37

> <PUBCHEM_SHAPE_SELFOVERLAP>
380.978

> <PUBCHEM_SHAPE_VOLUME>
131.4

> <PUBCHEM_COORDINATE_TYPE>
2
5
10

$$$$
