101710864
  -OEChem-09082011023D

 64 66  0     1  0  0  0  0  0999 V2000
   -1.9799   -1.4401   -1.0055 O   0  0  0  0  0  0  0  0  0  0  0  0
    2.2806   -1.1983   -0.5577 O   0  0  0  0  0  0  0  0  0  0  0  0
   -1.3415   -2.2468    1.6316 O   0  0  0  0  0  0  0  0  0  0  0  0
    0.2719   -0.9257   -2.5362 O   0  0  0  0  0  0  0  0  0  0  0  0
    0.2965   -5.3663    1.4244 O   0  0  0  0  0  0  0  0  0  0  0  0
   -1.0708   -4.4315    2.9905 O   0  0  0  0  0  0  0  0  0  0  0  0
   -3.7937   -2.4152   -2.0527 O   0  0  0  0  0  0  0  0  0  0  0  0
    2.2269    0.3654    1.1421 O   0  0  0  0  0  0  0  0  0  0  0  0
   -5.9676    3.6604    1.7873 O   0  0  0  0  0  0  0  0  0  0  0  0
    8.7615    3.9249    0.6664 O   0  0  0  0  0  0  0  0  0  0  0  0
   -8.3659    4.2499    0.5110 O   0  0  0  0  0  0  0  0  0  0  0  0
   10.3054    2.1051   -0.7592 O   0  0  0  0  0  0  0  0  0  0  0  0
   -0.5248   -3.2096    0.9750 C   0  0  1  0  0  0  0  0  0  0  0  0
   -1.1444   -2.5266   -1.4066 C   0  0  2  0  0  0  0  0  0  0  0  0
    0.9193   -1.5448   -0.3029 C   0  0  2  0  0  0  0  0  0  0  0  0
   -1.1876   -3.6312   -0.3449 C   0  0  0  0  0  0  0  0  0  0  0  0
    0.8829   -2.6519    0.7546 C   0  0  0  0  0  0  0  0  0  0  0  0
    0.2835   -2.0142   -1.6132 C   0  0  2  0  0  0  0  0  0  0  0  0
   -0.4848   -4.3755    1.9197 C   0  0  0  0  0  0  0  0  0  0  0  0
   -3.2825   -1.5191   -1.4001 C   0  0  0  0  0  0  0  0  0  0  0  0
    2.8028   -0.2265    0.2431 C   0  0  0  0  0  0  0  0  0  0  0  0
   -3.9834   -0.3165   -0.8958 C   0  0  0  0  0  0  0  0  0  0  0  0
    4.2083   -0.0068   -0.1674 C   0  0  0  0  0  0  0  0  0  0  0  0
   -5.2892   -0.1562   -1.1532 C   0  0  0  0  0  0  0  0  0  0  0  0
    4.9484    0.9088    0.4736 C   0  0  0  0  0  0  0  0  0  0  0  0
   -6.0929    0.9988   -0.7153 C   0  0  0  0  0  0  0  0  0  0  0  0
    6.3515    1.2247    0.1523 C   0  0  0  0  0  0  0  0  0  0  0  0
   -5.6502    1.7958    0.3403 C   0  0  0  0  0  0  0  0  0  0  0  0
   -7.2962    1.2948   -1.3558 C   0  0  0  0  0  0  0  0  0  0  0  0
    6.9045    2.4376    0.5634 C   0  0  0  0  0  0  0  0  0  0  0  0
    7.1264    0.3117   -0.5628 C   0  0  0  0  0  0  0  0  0  0  0  0
   -6.4105    2.8892    0.7554 C   0  0  0  0  0  0  0  0  0  0  0  0
   -8.0567    2.3879   -0.9404 C   0  0  0  0  0  0  0  0  0  0  0  0
    8.2324    2.7373    0.2594 C   0  0  0  0  0  0  0  0  0  0  0  0
    8.4542    0.6115   -0.8670 C   0  0  0  0  0  0  0  0  0  0  0  0
   -7.6139    3.1851    0.1150 C   0  0  0  0  0  0  0  0  0  0  0  0
    9.0074    1.8242   -0.4559 C   0  0  0  0  0  0  0  0  0  0  0  0
   -4.7280    3.2897    2.3875 C   0  0  0  0  0  0  0  0  0  0  0  0
   -1.4941   -2.9244   -2.3682 H   0  0  0  0  0  0  0  0  0  0  0  0
    0.3704   -0.6608    0.0486 H   0  0  0  0  0  0  0  0  0  0  0  0
   -2.2315   -3.9133   -0.1568 H   0  0  0  0  0  0  0  0  0  0  0  0
   -0.6865   -4.5174   -0.7547 H   0  0  0  0  0  0  0  0  0  0  0  0
    1.5807   -3.4451    0.4543 H   0  0  0  0  0  0  0  0  0  0  0  0
    1.2809   -2.2561    1.6983 H   0  0  0  0  0  0  0  0  0  0  0  0
    0.9062   -2.8009   -2.0574 H   0  0  0  0  0  0  0  0  0  0  0  0
   -2.2523   -2.5861    1.6650 H   0  0  0  0  0  0  0  0  0  0  0  0
   -0.1318   -1.2457   -3.3608 H   0  0  0  0  0  0  0  0  0  0  0  0
    0.3365   -6.1381    2.0284 H   0  0  0  0  0  0  0  0  0  0  0  0
   -3.3859    0.4046   -0.3505 H   0  0  0  0  0  0  0  0  0  0  0  0
    4.5766   -0.5958   -0.9992 H   0  0  0  0  0  0  0  0  0  0  0  0
   -5.8286   -0.9030   -1.7314 H   0  0  0  0  0  0  0  0  0  0  0  0
    4.5171    1.4894    1.2859 H   0  0  0  0  0  0  0  0  0  0  0  0
   -4.7277    1.5271    0.8386 H   0  0  0  0  0  0  0  0  0  0  0  0
   -7.6562    0.6852   -2.1810 H   0  0  0  0  0  0  0  0  0  0  0  0
    6.3030    3.1530    1.1202 H   0  0  0  0  0  0  0  0  0  0  0  0
    6.7446   -0.6524   -0.8856 H   0  0  0  0  0  0  0  0  0  0  0  0
   -8.9921    2.6074   -1.4482 H   0  0  0  0  0  0  0  0  0  0  0  0
    9.0484   -0.1105   -1.4210 H   0  0  0  0  0  0  0  0  0  0  0  0
    8.0812    4.4275    1.1466 H   0  0  0  0  0  0  0  0  0  0  0  0
   -9.1623    4.2995   -0.0452 H   0  0  0  0  0  0  0  0  0  0  0  0
   10.6829    1.3594   -1.2567 H   0  0  0  0  0  0  0  0  0  0  0  0
   -4.5273    4.0152    3.1830 H   0  0  0  0  0  0  0  0  0  0  0  0
   -3.8963    3.3618    1.6782 H   0  0  0  0  0  0  0  0  0  0  0  0
   -4.7884    2.3062    2.8661 H   0  0  0  0  0  0  0  0  0  0  0  0
  1 14  1  0  0  0  0
  1 20  1  0  0  0  0
  2 15  1  0  0  0  0
  2 21  1  0  0  0  0
  3 13  1  0  0  0  0
  3 46  1  0  0  0  0
  4 18  1  0  0  0  0
  4 47  1  0  0  0  0
  5 19  1  0  0  0  0
  5 48  1  0  0  0  0
  6 19  2  0  0  0  0
  7 20  2  0  0  0  0
  8 21  2  0  0  0  0
  9 32  1  0  0  0  0
  9 38  1  0  0  0  0
 10 34  1  0  0  0  0
 10 59  1  0  0  0  0
 11 36  1  0  0  0  0
 11 60  1  0  0  0  0
 12 37  1  0  0  0  0
 12 61  1  0  0  0  0
 13 16  1  0  0  0  0
 13 17  1  0  0  0  0
 13 19  1  0  0  0  0
 14 16  1  0  0  0  0
 14 18  1  0  0  0  0
 14 39  1  0  0  0  0
 15 17  1  0  0  0  0
 15 18  1  0  0  0  0
 15 40  1  0  0  0  0
 16 41  1  0  0  0  0
 16 42  1  0  0  0  0
 17 43  1  0  0  0  0
 17 44  1  0  0  0  0
 18 45  1  0  0  0  0
 20 22  1  0  0  0  0
 21 23  1  0  0  0  0
 22 24  2  0  0  0  0
 22 49  1  0  0  0  0
 23 25  2  0  0  0  0
 23 50  1  0  0  0  0
 24 26  1  0  0  0  0
 24 51  1  0  0  0  0
 25 27  1  0  0  0  0
 25 52  1  0  0  0  0
 26 28  2  0  0  0  0
 26 29  1  0  0  0  0
 27 30  2  0  0  0  0
 27 31  1  0  0  0  0
 28 32  1  0  0  0  0
 28 53  1  0  0  0  0
 29 33  2  0  0  0  0
 29 54  1  0  0  0  0
 30 34  1  0  0  0  0
 30 55  1  0  0  0  0
 31 35  2  0  0  0  0
 31 56  1  0  0  0  0
 32 36  2  0  0  0  0
 33 36  1  0  0  0  0
 33 57  1  0  0  0  0
 34 37  2  0  0  0  0
 35 37  1  0  0  0  0
 35 58  1  0  0  0  0
 38 62  1  0  0  0  0
 38 63  1  0  0  0  0
 38 64  1  0  0  0  0
M  END
> <PUBCHEM_COMPOUND_CID>
101710864

> <PUBCHEM_CONFORMER_RMSD>
1.2

> <PUBCHEM_CONFORMER_DIVERSEORDER>
1
33
22
18
30
34
26
14
20
16
24
38
7
35
37
27
23
21
29
32
31
8
13
15
19
12
25
11
36
4
10
17
6
5
28
3
2
9

> <PUBCHEM_MMFF94_PARTIAL_CHARGES>
52
1 -0.43
10 -0.53
11 -0.53
12 -0.53
13 0.34
14 0.28
15 0.28
18 0.28
19 0.66
2 -0.43
20 0.71
21 0.71
22 -0.14
23 -0.14
24 -0.18
25 -0.18
26 0.03
27 0.03
28 -0.15
29 -0.15
3 -0.68
30 -0.15
31 -0.15
32 0.08
33 -0.15
34 0.08
35 -0.15
36 0.08
37 0.08
38 0.28
4 -0.68
46 0.4
47 0.4
48 0.5
49 0.15
5 -0.65
50 0.15
51 0.15
52 0.15
53 0.15
54 0.15
55 0.15
56 0.15
57 0.15
58 0.15
59 0.45
6 -0.57
60 0.45
61 0.45
7 -0.57
8 -0.57
9 -0.36

> <PUBCHEM_EFFECTIVE_ROTOR_COUNT>
11.2

> <PUBCHEM_PHARMACOPHORE_FEATURES>
16
1 10 donor
1 11 donor
1 12 donor
1 3 acceptor
1 3 donor
1 4 acceptor
1 4 donor
1 5 acceptor
1 6 acceptor
1 7 acceptor
1 8 acceptor
1 9 acceptor
3 5 6 19 anion
6 13 14 15 16 17 18 rings
6 26 28 29 32 33 36 rings
6 27 30 31 34 35 37 rings

> <PUBCHEM_HEAVY_ATOM_COUNT>
38

> <PUBCHEM_ATOM_DEF_STEREO_COUNT>
4

> <PUBCHEM_ATOM_UDEF_STEREO_COUNT>
0

> <PUBCHEM_BOND_DEF_STEREO_COUNT>
2

> <PUBCHEM_BOND_UDEF_STEREO_COUNT>
0

> <PUBCHEM_ISOTOPIC_ATOM_COUNT>
0

> <PUBCHEM_COMPONENT_COUNT>
1

> <PUBCHEM_CACTVS_TAUTO_COUNT>
56

> <PUBCHEM_CONFORMER_ID>
060FFC1000000001

> <PUBCHEM_MMFF94_ENERGY>
109.6334

> <PUBCHEM_FEATURE_SELFOVERLAP>
81.276

> <PUBCHEM_SHAPE_FINGERPRINT>
10190206 1 17131839746098410617
11181472 205 18410011053733978284
1200032 147 18186798059052698234
12047536 79 16662597767683540597
13726171 33 18130515129043626867
13782708 43 8430326740403719030
14040221 275 17168154424519560771
14068700 675 12391519715228698818
14344974 204 8069757312143496384
14359421 15 12103843441355951653
14664723 55 18412265042704728549
15064981 113 16702587121207089884
15439362 3 18342458115084224502
15685185 35 18411135861986196769
19304152 47 18113617851079928437
19438510 23 18410856530224254883
21057603 192 18192436483946437083
21057603 95 18265050242078843098
21136928 129 18187656838112056136
21424621 283 18408884040264866026
23522609 53 16807308023768466470
23523787 8 16200139981205719927
23523788 1 13623807168530309323
3918712 181 18270397188146282669
406291 66 8790878597283658413
44426701 97 10665526157318495782
44802255 64 17274541047914636182
44880568 143 18194965365264175436
4516262 110 18262224531417800591
508180 173 17632008753873090626
57527295 17 18269822255229032150
57527573 199 18335707130562866199
57634706 229 18260270775752595066
5776283 40 17988637527764704209
5969126 39 11599738285027175290
6009941 240 18336547235520658894
6376802 90 18201727309655876382
6673363 416 18130220571517521717
6691757 9 17386277822198278014
6698420 124 18334292076700072786
6703917 75 18187930637249167711
9896288 288 17750518566707337762

> <PUBCHEM_SHAPE_MULTIPOLES>
711.59
29.69
6.59
1.98
39.12
3.71
-0.64
-53.6
4.33
-5.61
-4.55
-2.41
1.52
-2.05

> <PUBCHEM_SHAPE_SELFOVERLAP>
1524.151

> <PUBCHEM_SHAPE_VOLUME>
388.7

> <PUBCHEM_COORDINATE_TYPE>
2
5
10

$$$$
