10014817
  -OEChem-09082010303D

 26 27  0     0  0  0  0  0  0999 V2000
    2.0479   -0.9803   -0.2018 S   0  0  0  0  0  0  0  0  0  0  0  0
   -1.7593    0.9253   -0.2029 S   0  0  0  0  0  0  0  0  0  0  0  0
    4.9837   -1.3682   -0.5325 O   0  0  0  0  0  0  0  0  0  0  0  0
    0.8333    0.1693    0.1658 C   0  0  0  0  0  0  0  0  0  0  0  0
   -0.5350   -0.2052    0.1916 C   0  0  0  0  0  0  0  0  0  0  0  0
    3.2847    0.1915   -0.0309 C   0  0  0  0  0  0  0  0  0  0  0  0
    1.3608    1.4176    0.4128 C   0  0  0  0  0  0  0  0  0  0  0  0
    2.7810    1.4306    0.2987 C   0  0  0  0  0  0  0  0  0  0  0  0
   -1.0552   -1.4398    0.5122 C   0  0  0  0  0  0  0  0  0  0  0  0
   -2.4777   -1.4580    0.4326 C   0  0  0  0  0  0  0  0  0  0  0  0
   -2.9904   -0.2367    0.0545 C   0  0  0  0  0  0  0  0  0  0  0  0
    4.6427   -0.1974   -0.2330 C   0  0  0  0  0  0  0  0  0  0  0  0
    5.7845    0.8156   -0.0912 C   0  0  0  0  0  0  0  0  0  0  0  0
   -4.3759    0.0508   -0.1105 C   0  0  0  0  0  0  0  0  0  0  0  0
   -5.5515    0.2950   -0.2491 C   0  0  0  0  0  0  0  0  0  0  0  0
   -6.9738    0.5900   -0.4161 C   0  0  0  0  0  0  0  0  0  0  0  0
    0.7785    2.2930    0.6730 H   0  0  0  0  0  0  0  0  0  0  0  0
    3.3901    2.3118    0.4554 H   0  0  0  0  0  0  0  0  0  0  0  0
   -0.4661   -2.3015    0.8010 H   0  0  0  0  0  0  0  0  0  0  0  0
   -3.0853   -2.3290    0.6460 H   0  0  0  0  0  0  0  0  0  0  0  0
    5.7955    1.2160    0.9260 H   0  0  0  0  0  0  0  0  0  0  0  0
    5.6510    1.6229   -0.8160 H   0  0  0  0  0  0  0  0  0  0  0  0
    6.7420    0.3235   -0.2856 H   0  0  0  0  0  0  0  0  0  0  0  0
   -7.2235    0.7160   -1.4739 H   0  0  0  0  0  0  0  0  0  0  0  0
   -7.5891   -0.2217   -0.0163 H   0  0  0  0  0  0  0  0  0  0  0  0
   -7.2443    1.5112    0.1086 H   0  0  0  0  0  0  0  0  0  0  0  0
  1  4  1  0  0  0  0
  1  6  1  0  0  0  0
  2  5  1  0  0  0  0
  2 11  1  0  0  0  0
  3 12  2  0  0  0  0
  4  5  1  0  0  0  0
  4  7  2  0  0  0  0
  5  9  2  0  0  0  0
  6  8  2  0  0  0  0
  6 12  1  0  0  0  0
  7  8  1  0  0  0  0
  7 17  1  0  0  0  0
  8 18  1  0  0  0  0
  9 10  1  0  0  0  0
  9 19  1  0  0  0  0
 10 11  2  0  0  0  0
 10 20  1  0  0  0  0
 11 14  1  0  0  0  0
 12 13  1  0  0  0  0
 13 21  1  0  0  0  0
 13 22  1  0  0  0  0
 13 23  1  0  0  0  0
 14 15  3  0  0  0  0
 15 16  1  0  0  0  0
 16 24  1  0  0  0  0
 16 25  1  0  0  0  0
 16 26  1  0  0  0  0
M  END
> <PUBCHEM_COMPOUND_CID>
10014817

> <PUBCHEM_CONFORMER_RMSD>
0.6

> <PUBCHEM_CONFORMER_DIVERSEORDER>
1
8
10
5
7
3
4
9
2
11
12
6

> <PUBCHEM_MMFF94_PARTIAL_CHARGES>
20
1 -0.08
10 -0.15
11 0.06
12 0.59
13 0.06
14 -0.02
15 -0.2
16 0.2
17 0.15
18 0.15
19 0.15
2 -0.08
20 0.15
3 -0.57
4 0.04
5 0.04
6 -0.05
7 -0.15
8 -0.15
9 -0.15

> <PUBCHEM_EFFECTIVE_ROTOR_COUNT>
2

> <PUBCHEM_PHARMACOPHORE_FEATURES>
4
1 16 hydrophobe
1 3 acceptor
5 1 4 6 7 8 rings
5 2 5 9 10 11 rings

> <PUBCHEM_HEAVY_ATOM_COUNT>
16

> <PUBCHEM_ATOM_DEF_STEREO_COUNT>
0

> <PUBCHEM_ATOM_UDEF_STEREO_COUNT>
0

> <PUBCHEM_BOND_DEF_STEREO_COUNT>
0

> <PUBCHEM_BOND_UDEF_STEREO_COUNT>
0

> <PUBCHEM_ISOTOPIC_ATOM_COUNT>
0

> <PUBCHEM_COMPONENT_COUNT>
1

> <PUBCHEM_CACTVS_TAUTO_COUNT>
2

> <PUBCHEM_CONFORMER_ID>
0098D06100000001

> <PUBCHEM_MMFF94_ENERGY>
18.8674

> <PUBCHEM_FEATURE_SELFOVERLAP>
20.297

> <PUBCHEM_SHAPE_FINGERPRINT>
11401426 45 18272369797694023962
11471102 20 18342739628545821640
12236239 1 16487257659963569767
12670543 26 18411417272416455293
12815109 37 18343021099158941188
12916748 109 16515401850641699492
13533116 47 13326585016457177780
14115302 16 18114473335181108222
14123238 8 9727636107036520781
14911166 2 18410293613991891579
15048467 5 17822013133650178492
15099037 51 18411418418893206759
15196674 1 18338236084436573339
15242439 84 18408886247919858035
15531645 54 18409730651464804725
17834072 8 18410576184185256239
17834076 25 14851604380038829981
18186145 218 17895182359312521835
18222031 100 14692575433565978400
187816 3 17988925570151877259
19141452 34 18341048605300497207
19489759 90 14979962458682395275
200 152 17632858629053371347
20279233 1 18343311378539313262
20281389 69 17603580816386609893
20645477 56 18186799197450840783
20645477 70 18059297570047016910
20681677 155 17531247300400467531
21150785 3 16343703265989423464
21267235 1 18412553097533763371
21279426 13 18193555562721572285
21285901 2 18338521828837643252
221357 26 18341890771183592629
2215653 11 18343586235166495870
23218964 4 18335138682971911315
23402539 116 18272082816859260501
23402655 69 18343299262853081765
23536379 177 17346880035957468745
23559900 14 18341889748659389256
29717793 49 17418381280847806708
300161 21 18411134775311309618
3004659 81 18260269608444428850
3014965 18 18188203191647045155
335352 9 18410011048135712094
351380 180 18343018904346347909
3545911 37 18335421275077955843
4072396 5 18339913853988342498
42788 4 18410575084673641429
4463277 17 18408886235072152181
5104073 3 18337954613696756698
542803 24 15140961763887606487
59755656 215 18335139748314003783
59755656 520 17675919915898835187
633830 44 17822567342896739786
69090 78 18342735239152802063

> <PUBCHEM_SHAPE_MULTIPOLES>
331.1
14.14
1.43
0.71
8.51
0.15
0.01
-2.25
-2.63
-0.56
0.11
0.01
0.02
0.63

> <PUBCHEM_SHAPE_SELFOVERLAP>
678.002

> <PUBCHEM_SHAPE_VOLUME>
192.3

> <PUBCHEM_COORDINATE_TYPE>
2
5
10

$$$$
