13856336
  -OEChem-09082010363D

 59 63  0     1  0  0  0  0  0999 V2000
    2.5519    0.0737    1.1165 S   0  0  0  0  0  0  0  0  0  0  0  0
    6.3853    0.3998   -0.7068 S   0  0  0  0  0  0  0  0  0  0  0  0
   -4.0275    1.5389   -1.1691 O   0  0  0  0  0  0  0  0  0  0  0  0
   -2.1706    2.6574    1.5630 O   0  0  0  0  0  0  0  0  0  0  0  0
   -3.4049    3.7046   -0.7563 O   0  0  0  0  0  0  0  0  0  0  0  0
   -0.2561    0.6901    1.7886 O   0  0  0  0  0  0  0  0  0  0  0  0
   -4.9363   -0.6518   -0.7106 C   0  0  2  0  0  0  0  0  0  0  0  0
   -3.6786    0.2297   -0.6639 C   0  0  2  0  0  0  0  0  0  0  0  0
   -3.0224    0.5133    0.6928 C   0  0  1  0  0  0  0  0  0  0  0  0
   -4.8524   -1.9129    0.1795 C   0  0  2  0  0  0  0  0  0  0  0  0
   -2.3275    1.8574    0.4112 C   0  0  1  0  0  0  0  0  0  0  0  0
   -4.0042    0.5695    1.8818 C   0  0  0  0  0  0  0  0  0  0  0  0
   -5.6604   -2.9621   -0.6041 C   0  0  0  0  0  0  0  0  0  0  0  0
   -5.1844   -1.2274   -2.1002 C   0  0  0  0  0  0  0  0  0  0  0  0
   -5.2934   -1.6347    1.6032 C   0  0  0  0  0  0  0  0  0  0  0  0
   -5.2490   -2.7250   -2.0468 C   0  0  0  0  0  0  0  0  0  0  0  0
   -4.3454   -0.8154    2.4451 C   0  0  0  0  0  0  0  0  0  0  0  0
   -3.2913    2.5068   -0.5480 C   0  0  0  0  0  0  0  0  0  0  0  0
   -0.9647    1.6944   -0.2639 C   0  0  0  0  0  0  0  0  0  0  0  0
   -5.4126   -0.5204   -3.2142 C   0  0  0  0  0  0  0  0  0  0  0  0
   -6.4295   -2.0951    2.1549 C   0  0  0  0  0  0  0  0  0  0  0  0
    0.0591    1.0283    0.6460 C   0  0  0  0  0  0  0  0  0  0  0  0
    1.4137    0.8129    0.1088 C   0  0  0  0  0  0  0  0  0  0  0  0
    1.8684    1.1410   -1.1183 C   0  0  0  0  0  0  0  0  0  0  0  0
    3.7332    0.1789   -0.1187 C   0  0  0  0  0  0  0  0  0  0  0  0
    3.2367    0.7697   -1.2598 C   0  0  0  0  0  0  0  0  0  0  0  0
    5.0479   -0.3109    0.0924 C   0  0  0  0  0  0  0  0  0  0  0  0
    5.4280   -1.3530    0.9093 C   0  0  0  0  0  0  0  0  0  0  0  0
    6.8358   -1.5706    0.8788 C   0  0  0  0  0  0  0  0  0  0  0  0
    7.4780   -0.6868    0.0398 C   0  0  0  0  0  0  0  0  0  0  0  0
    8.8828   -0.6591   -0.1954 C   0  0  0  0  0  0  0  0  0  0  0  0
   10.0744   -0.6351   -0.3960 C   0  0  0  0  0  0  0  0  0  0  0  0
   11.5158   -0.6061   -0.6397 C   0  0  0  0  0  0  0  0  0  0  0  0
   -5.8235   -0.0590   -0.4441 H   0  0  0  0  0  0  0  0  0  0  0  0
   -2.9255   -0.1812   -1.3501 H   0  0  0  0  0  0  0  0  0  0  0  0
   -2.2992   -0.2816    0.9039 H   0  0  0  0  0  0  0  0  0  0  0  0
   -3.8135   -2.2743    0.2151 H   0  0  0  0  0  0  0  0  0  0  0  0
   -4.9143    1.1238    1.6233 H   0  0  0  0  0  0  0  0  0  0  0  0
   -3.5357    1.1032    2.7166 H   0  0  0  0  0  0  0  0  0  0  0  0
   -6.7423   -2.8059   -0.5129 H   0  0  0  0  0  0  0  0  0  0  0  0
   -5.4348   -3.9830   -0.2786 H   0  0  0  0  0  0  0  0  0  0  0  0
   -5.9706   -3.1546   -2.7478 H   0  0  0  0  0  0  0  0  0  0  0  0
   -4.2586   -3.1514   -2.2412 H   0  0  0  0  0  0  0  0  0  0  0  0
   -4.7712   -0.6653    3.4464 H   0  0  0  0  0  0  0  0  0  0  0  0
   -3.4243   -1.3912    2.6025 H   0  0  0  0  0  0  0  0  0  0  0  0
   -0.5710    2.6880   -0.5161 H   0  0  0  0  0  0  0  0  0  0  0  0
   -1.0446    1.1179   -1.1919 H   0  0  0  0  0  0  0  0  0  0  0  0
   -3.0455    2.9657    1.8534 H   0  0  0  0  0  0  0  0  0  0  0  0
   -5.4076    0.5632   -3.2100 H   0  0  0  0  0  0  0  0  0  0  0  0
   -5.6175   -1.0162   -4.1573 H   0  0  0  0  0  0  0  0  0  0  0  0
   -7.1428   -2.7032    1.6130 H   0  0  0  0  0  0  0  0  0  0  0  0
   -6.6827   -1.8732    3.1871 H   0  0  0  0  0  0  0  0  0  0  0  0
    1.2921    1.6179   -1.9002 H   0  0  0  0  0  0  0  0  0  0  0  0
    3.8045    0.9314   -2.1678 H   0  0  0  0  0  0  0  0  0  0  0  0
    4.7480   -1.9510    1.5034 H   0  0  0  0  0  0  0  0  0  0  0  0
    7.3421   -2.3416    1.4469 H   0  0  0  0  0  0  0  0  0  0  0  0
   12.0703   -0.8185    0.2794 H   0  0  0  0  0  0  0  0  0  0  0  0
   11.7993   -1.3529   -1.3874 H   0  0  0  0  0  0  0  0  0  0  0  0
   11.8289    0.3764   -1.0056 H   0  0  0  0  0  0  0  0  0  0  0  0
  1 23  1  0  0  0  0
  1 25  1  0  0  0  0
  2 27  1  0  0  0  0
  2 30  1  0  0  0  0
  3  8  1  0  0  0  0
  3 18  1  0  0  0  0
  4 11  1  0  0  0  0
  4 48  1  0  0  0  0
  5 18  2  0  0  0  0
  6 22  2  0  0  0  0
  7  8  1  0  0  0  0
  7 10  1  0  0  0  0
  7 14  1  0  0  0  0
  7 34  1  0  0  0  0
  8  9  1  0  0  0  0
  8 35  1  0  0  0  0
  9 11  1  0  0  0  0
  9 12  1  0  0  0  0
  9 36  1  0  0  0  0
 10 13  1  0  0  0  0
 10 15  1  0  0  0  0
 10 37  1  0  0  0  0
 11 18  1  0  0  0  0
 11 19  1  0  0  0  0
 12 17  1  0  0  0  0
 12 38  1  0  0  0  0
 12 39  1  0  0  0  0
 13 16  1  0  0  0  0
 13 40  1  0  0  0  0
 13 41  1  0  0  0  0
 14 16  1  0  0  0  0
 14 20  2  0  0  0  0
 15 17  1  0  0  0  0
 15 21  2  0  0  0  0
 16 42  1  0  0  0  0
 16 43  1  0  0  0  0
 17 44  1  0  0  0  0
 17 45  1  0  0  0  0
 19 22  1  0  0  0  0
 19 46  1  0  0  0  0
 19 47  1  0  0  0  0
 20 49  1  0  0  0  0
 20 50  1  0  0  0  0
 21 51  1  0  0  0  0
 21 52  1  0  0  0  0
 22 23  1  0  0  0  0
 23 24  2  0  0  0  0
 24 26  1  0  0  0  0
 24 53  1  0  0  0  0
 25 26  2  0  0  0  0
 25 27  1  0  0  0  0
 26 54  1  0  0  0  0
 27 28  2  0  0  0  0
 28 29  1  0  0  0  0
 28 55  1  0  0  0  0
 29 30  2  0  0  0  0
 29 56  1  0  0  0  0
 30 31  1  0  0  0  0
 31 32  3  0  0  0  0
 32 33  1  0  0  0  0
 33 57  1  0  0  0  0
 33 58  1  0  0  0  0
 33 59  1  0  0  0  0
M  END
> <PUBCHEM_COMPOUND_CID>
13856336

> <PUBCHEM_CONFORMER_RMSD>
0.8

> <PUBCHEM_CONFORMER_DIVERSEORDER>
1
11
16
377
76
38
147
199
223
78
120
33
148
320
312
225
280
272
375
236
26
32
379
96
66
387
124
23
197
106
380
245
345
369
103
362
348
391
22
102
27
31
101
206
122
29
323
333
297
21
95
328
383
8
40
259
349
363
288
48
110
73
79
163
368
303
260
107
146
299
179
278
51
258
99
354
249
296
70
88
28
41
371
361
19
287
119
388
37
289
308
254
59
313
93
18
358
298
322
309
69
319
343
243
248
378
352
188
329
58
80
184
4
187
325
218
61
152
279
301
164
282
64
318
174
386
20
381
284
293
39
198
193
91
181
295
382
321
209
274
52
273
340
75
130
265
269
98
97
71
217
157
311
283
327
355
226
234
63
366
326
315
221
9
203
238
183
83
213
161
251
67
85
372
262
30
12
281
314
177
89
316
242
392
24
112
116
50
250
271
154
77
232
270
305
317
208
140
6
276
121
331
330
346
176
219
337
139
214
14
2
3
290
350
294
186
13
389
86
56
145
43
341
62
212
356
17
15
255
10
347
114
376
360
36
34
195
264
351
207
240
216
123
304
339
291
166
55
204
60
25
191
266
68
253
150
310
42
230
367
35
65
302
170
385
104
126
227
74
87
261
49
244
100
335
256
185
332
162
324
94
167
44
159
189
267
108
175
137
144
241
263
131
202
228
190
277
141
365
246
45
210
222
132
173
374
390
135
353
72
92
192
300
155
128
171
285
235
344
5
239
111
47
169
373
81
292
165
275
46
109
194
224
153
338
156
384
220
257
336
237
7
160
370
115
393
117
54
357
364
84
136
82
306
158
178
182
151
342
172
359
118
149
334
129
133
215
247
53
231
90
196
201
229
180
57
307
125
268
252
138
200
142
134
233
105
205
127
211
143
286
168
113

> <PUBCHEM_MMFF94_PARTIAL_CHARGES>
39
1 -0.08
10 0.14
11 0.34
14 -0.28
15 -0.28
16 0.14
17 0.14
18 0.66
19 0.06
2 -0.08
20 -0.3
21 -0.3
22 0.59
23 -0.05
24 -0.15
25 0.04
26 -0.15
27 0.04
28 -0.15
29 -0.15
3 -0.43
30 0.06
31 -0.02
32 -0.2
33 0.2
4 -0.68
48 0.4
49 0.15
5 -0.57
50 0.15
51 0.15
52 0.15
53 0.15
54 0.15
55 0.15
56 0.15
6 -0.57
7 0.14
8 0.28

> <PUBCHEM_EFFECTIVE_ROTOR_COUNT>
5.2

> <PUBCHEM_PHARMACOPHORE_FEATURES>
10
1 33 hydrophobe
1 4 acceptor
1 4 donor
1 5 acceptor
1 6 acceptor
5 1 23 24 25 26 rings
5 2 27 28 29 30 rings
5 3 8 9 11 18 rings
5 7 10 13 14 16 rings
7 7 8 9 10 12 15 17 rings

> <PUBCHEM_HEAVY_ATOM_COUNT>
33

> <PUBCHEM_ATOM_DEF_STEREO_COUNT>
4

> <PUBCHEM_ATOM_UDEF_STEREO_COUNT>
1

> <PUBCHEM_BOND_DEF_STEREO_COUNT>
0

> <PUBCHEM_BOND_UDEF_STEREO_COUNT>
0

> <PUBCHEM_ISOTOPIC_ATOM_COUNT>
0

> <PUBCHEM_COMPONENT_COUNT>
1

> <PUBCHEM_CACTVS_TAUTO_COUNT>
2

> <PUBCHEM_CONFORMER_ID>
00D36E5000000001

> <PUBCHEM_MMFF94_ENERGY>
67.5554

> <PUBCHEM_FEATURE_SELFOVERLAP>
50.819

> <PUBCHEM_SHAPE_FINGERPRINT>
10 15 13398637146953663602
10533779 1 8213607500811549063
10554248 39 12396564227389921080
10577160 183 13984651582378535608
10930396 42 15626231217519665715
11135926 11 17531247223064793050
11273773 118 9871749100484503628
11315181 36 17458349619755830760
11497681 19 18336547111230578974
11578821 258 11819580142619212614
11607047 191 16486154799306140267
12082328 90 18187086122788626714
12104220 1 16630530626454170090
12539765 74 11095878290760721688
12664476 115 11314318230219363599
12988421 55 9799425446693027013
13690498 29 18334570240056420969
13782708 43 18273209794818790106
14040221 310 18334288752026139956
14202775 3 17774445976939869270
14849402 71 12966259753541598514
14856354 85 16056881377001756949
14950920 106 15913039984791119819
15064986 266 18260828198832212085
15152005 1 17698992209098070671
15183329 4 15791727508249765304
15461852 350 18410577271940941804
1577012 14 17968095262640333392
15876981 60 18113904822945249037
1754908 1 17132108032227840250
17686467 74 18408882954577429376
17780758 139 16774082882225809571
18603816 31 18342181115742816019
19611394 137 17203320153062474234
19841028 212 17629191900284951271
21033650 10 14923936852237059173
21095123 145 17918277559248944156
21133410 32 15647345190562255665
21792965 106 13479670038004569182
21792965 68 9007068958513987930
22393880 68 16443337719785009113
23389318 12 18040716983732400542
23559900 14 17895191159912300441
23576562 1 13768790017731886890
24771293 8 17603592894773636836
2747138 104 16917061154104194626
2838139 119 12251896010112611615
335507 130 18334304149857909696
3711267 37 10952047884422689994
397830 11 17845639452751453536
4015057 19 17241061984444298580
4330586 98 18041844046620896782
44880568 143 16153705448922104612
45377200 153 17917712410273229326
484985 159 18201715177005351215
5080951 261 18343303626872716225
54039377 194 18260554467280629027
57527295 17 15068609496792428065
5937810 71 9150876327043544314
6201460 15 16837387482949319703
6431902 208 18334576841152162283
6673363 416 18341619205804618988
9953998 17 16486981691282911859
999808 66 17132113542000298878

> <PUBCHEM_SHAPE_MULTIPOLES>
663.35
28.14
2.77
2.19
83.5
0.8
-0.38
-18.6
-4.89
-5.99
-0.25
-5.54
-0.76
-0.7

> <PUBCHEM_SHAPE_SELFOVERLAP>
1421.073

> <PUBCHEM_SHAPE_VOLUME>
368.4

> <PUBCHEM_COORDINATE_TYPE>
2
5
10

$$$$
