71587385
  -OEChem-09082010333D

 26 27  0     0  0  0  0  0  0999 V2000
    1.3037   -1.1492    0.1642 S   0  0  0  0  0  0  0  0  0  0  0  0
   -2.4294    0.8974    0.2235 S   0  0  0  0  0  0  0  0  0  0  0  0
    4.2689   -1.6415    0.4557 O   0  0  0  0  0  0  0  0  0  0  0  0
    6.2444   -0.2146    0.2856 O   0  0  0  0  0  0  0  0  0  0  0  0
    4.9915    1.6617   -0.1587 O   0  0  0  0  0  0  0  0  0  0  0  0
    0.1318    0.0528   -0.1732 C   0  0  0  0  0  0  0  0  0  0  0  0
   -1.2497   -0.2693   -0.2001 C   0  0  0  0  0  0  0  0  0  0  0  0
    0.7051    1.2852   -0.3971 C   0  0  0  0  0  0  0  0  0  0  0  0
    2.5832   -0.0214    0.0115 C   0  0  0  0  0  0  0  0  0  0  0  0
    2.1251    1.2423   -0.2902 C   0  0  0  0  0  0  0  0  0  0  0  0
   -1.8170   -1.4768   -0.5435 C   0  0  0  0  0  0  0  0  0  0  0  0
   -3.2388   -1.4436   -0.4579 C   0  0  0  0  0  0  0  0  0  0  0  0
   -3.7041   -0.2122   -0.0523 C   0  0  0  0  0  0  0  0  0  0  0  0
    3.9264   -0.4651    0.1990 C   0  0  0  0  0  0  0  0  0  0  0  0
   -5.0774    0.1225    0.1242 C   0  0  0  0  0  0  0  0  0  0  0  0
    5.1163    0.4783    0.0797 C   0  0  0  0  0  0  0  0  0  0  0  0
   -6.2353    0.4048    0.2733 C   0  0  0  0  0  0  0  0  0  0  0  0
   -7.6446    0.7486    0.4561 C   0  0  0  0  0  0  0  0  0  0  0  0
    0.1548    2.1870   -0.6363 H   0  0  0  0  0  0  0  0  0  0  0  0
    2.7380    2.1193   -0.4381 H   0  0  0  0  0  0  0  0  0  0  0  0
   -1.2616   -2.3537   -0.8527 H   0  0  0  0  0  0  0  0  0  0  0  0
   -3.8793   -2.2867   -0.6866 H   0  0  0  0  0  0  0  0  0  0  0  0
   -8.1641    0.7859   -0.5061 H   0  0  0  0  0  0  0  0  0  0  0  0
   -8.1476    0.0078    1.0849 H   0  0  0  0  0  0  0  0  0  0  0  0
   -7.7476    1.7267    0.9355 H   0  0  0  0  0  0  0  0  0  0  0  0
    7.0440    0.3501    0.2229 H   0  0  0  0  0  0  0  0  0  0  0  0
  1  6  1  0  0  0  0
  1  9  1  0  0  0  0
  2  7  1  0  0  0  0
  2 13  1  0  0  0  0
  3 14  2  0  0  0  0
  4 16  1  0  0  0  0
  4 26  1  0  0  0  0
  5 16  2  0  0  0  0
  6  7  1  0  0  0  0
  6  8  2  0  0  0  0
  7 11  2  0  0  0  0
  8 10  1  0  0  0  0
  8 19  1  0  0  0  0
  9 10  2  0  0  0  0
  9 14  1  0  0  0  0
 10 20  1  0  0  0  0
 11 12  1  0  0  0  0
 11 21  1  0  0  0  0
 12 13  2  0  0  0  0
 12 22  1  0  0  0  0
 13 15  1  0  0  0  0
 14 16  1  0  0  0  0
 15 17  3  0  0  0  0
 17 18  1  0  0  0  0
 18 23  1  0  0  0  0
 18 24  1  0  0  0  0
 18 25  1  0  0  0  0
M  END
> <PUBCHEM_COMPOUND_CID>
71587385

> <PUBCHEM_CONFORMER_RMSD>
0.6

> <PUBCHEM_CONFORMER_DIVERSEORDER>
1
13
7
17
15
10
8
9
4
16
12
19
14
2
6
18
11
20
3
5

> <PUBCHEM_MMFF94_PARTIAL_CHARGES>
23
1 -0.08
10 -0.15
11 -0.15
12 -0.15
13 0.06
14 0.65
15 -0.02
16 0.72
17 -0.2
18 0.2
19 0.15
2 -0.08
20 0.15
21 0.15
22 0.15
26 0.5
3 -0.57
4 -0.65
5 -0.57
6 0.04
7 0.04
8 -0.15
9 -0.05

> <PUBCHEM_EFFECTIVE_ROTOR_COUNT>
3

> <PUBCHEM_PHARMACOPHORE_FEATURES>
7
1 18 hydrophobe
1 3 acceptor
1 4 acceptor
1 5 acceptor
3 4 5 16 anion
5 1 6 8 9 10 rings
5 2 7 11 12 13 rings

> <PUBCHEM_HEAVY_ATOM_COUNT>
18

> <PUBCHEM_ATOM_DEF_STEREO_COUNT>
0

> <PUBCHEM_ATOM_UDEF_STEREO_COUNT>
0

> <PUBCHEM_BOND_DEF_STEREO_COUNT>
0

> <PUBCHEM_BOND_UDEF_STEREO_COUNT>
0

> <PUBCHEM_ISOTOPIC_ATOM_COUNT>
0

> <PUBCHEM_COMPONENT_COUNT>
1

> <PUBCHEM_CACTVS_TAUTO_COUNT>
1

> <PUBCHEM_CONFORMER_ID>
0444563900000001

> <PUBCHEM_MMFF94_ENERGY>
25.0705

> <PUBCHEM_FEATURE_SELFOVERLAP>
35.598

> <PUBCHEM_SHAPE_FINGERPRINT>
10354089 29 18187366531990877867
11089746 13 17846775226519116193
117890 112 17989207053164757833
12107183 9 17764310539943614290
12236239 1 18412825802567135139
13167372 99 18341334388488316257
13533116 47 17203329944681015670
1420 363 10015582826737556677
14251764 18 18412826911132836815
14251764 46 17561083596877368742
14341114 176 18333454226947639179
15048467 5 18272932734467157361
15142383 8 17822005385418504173
15196674 1 18338515343310580951
15527383 91 18333449858770941365
17834072 33 18411980299637070308
17834076 25 17418374692372982795
1813 80 17240771640121998358
19141452 34 18410853295718248815
19489759 90 15985107409961566059
200 152 18272083920565726023
20281389 69 18410291406927795425
20621476 66 18272375248551081953
20681677 155 18410290345875694683
21267235 1 18335423418377601158
23402539 116 17846492652115076621
23536379 177 18408604756042827209
23557571 272 15051746269449895377
23559900 14 17988353875080785896
23622692 88 18411420618122145509
26918003 58 17968100837154416553
29717793 49 17918279753375995348
300161 21 18201997750512435966
335352 9 18412545427102046237
34797466 226 17203334437696724932
350125 39 18411138030818041717
3545911 37 18413389830451748815
4072396 5 17775001263019837214
4073 2 17968100888077229210
42788 4 18410573993751948245
4340502 62 16226043401545965082
4463277 17 18408603660699754357
5104073 3 18337667641409989195
542803 24 17917992784619115533
59755656 215 18131078090732235919
59755656 520 17676485077697084523

> <PUBCHEM_SHAPE_MULTIPOLES>
360.52
16.14
1.48
0.7
10.07
0.15
-0.01
-3.26
2.78
-0.59
-0.1
0.12
0.03
-0.72

> <PUBCHEM_SHAPE_SELFOVERLAP>
748.335

> <PUBCHEM_SHAPE_VOLUME>
205.2

> <PUBCHEM_COORDINATE_TYPE>
2
5
10

$$$$
