11432381
  -OEChem-09082009473D

 69 72  0     1  0  0  0  0  0999 V2000
    6.2455    0.3160    0.8757 O   0  0  0  0  0  0  0  0  0  0  0  0
   -3.2055   -0.2530    1.5332 O   0  0  0  0  0  0  0  0  0  0  0  0
   -2.0711   -2.1187    0.7110 O   0  0  0  0  0  0  0  0  0  0  0  0
   -6.2246   -0.7175   -1.2121 O   0  0  0  0  0  0  0  0  0  0  0  0
   -5.9176    1.7998    0.1751 O   0  0  0  0  0  0  0  0  0  0  0  0
   -3.5977   -1.9716   -1.6671 O   0  0  0  0  0  0  0  0  0  0  0  0
    6.0535   -1.4420   -0.5813 O   0  0  0  0  0  0  0  0  0  0  0  0
   -2.9334    1.9369    3.1721 O   0  0  0  0  0  0  0  0  0  0  0  0
   -0.3336   -3.5897   -0.8892 O   0  0  0  0  0  0  0  0  0  0  0  0
    0.0860    1.0098   -3.0243 O   0  0  0  0  0  0  0  0  0  0  0  0
   -1.5079    2.8574   -1.6930 O   0  0  0  0  0  0  0  0  0  0  0  0
    4.0050    1.0033    0.9538 C   0  0  1  0  0  0  0  0  0  0  0  0
    4.0627   -0.3854    0.3265 C   0  0  2  0  0  0  0  0  0  0  0  0
    5.3417    1.0999    1.6622 C   0  0  0  0  0  0  0  0  0  0  0  0
    3.5161   -1.4743    1.2393 C   0  0  0  0  0  0  0  0  0  0  0  0
   -4.9735   -0.2246   -0.7302 C   0  0  1  0  0  0  0  0  0  0  0  0
    3.8728    2.0902   -0.1168 C   0  0  0  0  0  0  0  0  0  0  0  0
   -5.2429    0.5961    0.5312 C   0  0  1  0  0  0  0  0  0  0  0  0
   -4.0420   -1.4008   -0.4367 C   0  0  2  0  0  0  0  0  0  0  0  0
   -3.9335    0.9419    1.2442 C   0  0  1  0  0  0  0  0  0  0  0  0
   -2.8132   -0.9529    0.3547 C   0  0  1  0  0  0  0  0  0  0  0  0
    5.5434   -0.5854    0.1250 C   0  0  0  0  0  0  0  0  0  0  0  0
    2.0417   -1.6466    1.0970 C   0  0  0  0  0  0  0  0  0  0  0  0
    2.4404    2.2922   -0.5394 C   0  0  0  0  0  0  0  0  0  0  0  0
   -4.1831    1.6597    2.5668 C   0  0  0  0  0  0  0  0  0  0  0  0
   -0.7167   -1.9694    0.8315 C   0  0  0  0  0  0  0  0  0  0  0  0
    1.5316   -2.5463    0.1611 C   0  0  0  0  0  0  0  0  0  0  0  0
    1.1726   -0.9083    1.9002 C   0  0  0  0  0  0  0  0  0  0  0  0
    0.1525   -2.7078    0.0283 C   0  0  0  0  0  0  0  0  0  0  0  0
   -0.2066   -1.0695    1.7672 C   0  0  0  0  0  0  0  0  0  0  0  0
    1.9144    1.5520   -1.5982 C   0  0  0  0  0  0  0  0  0  0  0  0
    1.6405    3.2193    0.1286 C   0  0  0  0  0  0  0  0  0  0  0  0
    0.5883    1.7387   -1.9890 C   0  0  0  0  0  0  0  0  0  0  0  0
    0.3146    3.4063   -0.2623 C   0  0  0  0  0  0  0  0  0  0  0  0
   -0.2115    2.6659   -1.3210 C   0  0  0  0  0  0  0  0  0  0  0  0
    0.6218   -4.3049   -1.6702 C   0  0  0  0  0  0  0  0  0  0  0  0
    0.9694    0.0835   -3.6536 C   0  0  0  0  0  0  0  0  0  0  0  0
    3.1978    1.1248    1.6827 H   0  0  0  0  0  0  0  0  0  0  0  0
    3.5914   -0.4290   -0.6578 H   0  0  0  0  0  0  0  0  0  0  0  0
    5.3053    0.6659    2.6675 H   0  0  0  0  0  0  0  0  0  0  0  0
    5.7223    2.1222    1.7431 H   0  0  0  0  0  0  0  0  0  0  0  0
    3.7691   -1.2790    2.2901 H   0  0  0  0  0  0  0  0  0  0  0  0
    4.0035   -2.4343    1.0189 H   0  0  0  0  0  0  0  0  0  0  0  0
   -4.5665    0.4077   -1.5282 H   0  0  0  0  0  0  0  0  0  0  0  0
   -5.9062    0.0352    1.2010 H   0  0  0  0  0  0  0  0  0  0  0  0
    4.4967    1.8760   -0.9945 H   0  0  0  0  0  0  0  0  0  0  0  0
    4.2452    3.0479    0.2713 H   0  0  0  0  0  0  0  0  0  0  0  0
   -4.5785   -2.1903    0.1025 H   0  0  0  0  0  0  0  0  0  0  0  0
   -3.3037    1.5909    0.6203 H   0  0  0  0  0  0  0  0  0  0  0  0
   -2.1865   -0.2995   -0.2708 H   0  0  0  0  0  0  0  0  0  0  0  0
   -4.7525    1.0249    3.2537 H   0  0  0  0  0  0  0  0  0  0  0  0
   -4.7179    2.6025    2.4175 H   0  0  0  0  0  0  0  0  0  0  0  0
    2.2548   -3.0894   -0.4382 H   0  0  0  0  0  0  0  0  0  0  0  0
    1.5528   -0.2141    2.6443 H   0  0  0  0  0  0  0  0  0  0  0  0
   -6.6038   -1.2983   -0.5306 H   0  0  0  0  0  0  0  0  0  0  0  0
   -5.3312    2.3117   -0.4077 H   0  0  0  0  0  0  0  0  0  0  0  0
   -3.1121   -1.2877   -2.1590 H   0  0  0  0  0  0  0  0  0  0  0  0
   -0.8607   -0.4978    2.4179 H   0  0  0  0  0  0  0  0  0  0  0  0
    2.5844    0.8645   -2.1006 H   0  0  0  0  0  0  0  0  0  0  0  0
    2.0375    3.7999    0.9570 H   0  0  0  0  0  0  0  0  0  0  0  0
   -3.1158    2.3895    4.0132 H   0  0  0  0  0  0  0  0  0  0  0  0
   -0.2979    4.1309    0.2676 H   0  0  0  0  0  0  0  0  0  0  0  0
    0.0604   -4.9598   -2.3447 H   0  0  0  0  0  0  0  0  0  0  0  0
    1.2488   -4.9528   -1.0481 H   0  0  0  0  0  0  0  0  0  0  0  0
    1.2125   -3.6316   -2.3008 H   0  0  0  0  0  0  0  0  0  0  0  0
   -1.9081    3.5284   -1.1136 H   0  0  0  0  0  0  0  0  0  0  0  0
    0.4021   -0.4131   -4.4477 H   0  0  0  0  0  0  0  0  0  0  0  0
    1.2947   -0.6997   -2.9601 H   0  0  0  0  0  0  0  0  0  0  0  0
    1.8114    0.5919   -4.1356 H   0  0  0  0  0  0  0  0  0  0  0  0
  1 14  1  0  0  0  0
  1 22  1  0  0  0  0
  2 20  1  0  0  0  0
  2 21  1  0  0  0  0
  3 21  1  0  0  0  0
  3 26  1  0  0  0  0
  4 16  1  0  0  0  0
  4 55  1  0  0  0  0
  5 18  1  0  0  0  0
  5 56  1  0  0  0  0
  6 19  1  0  0  0  0
  6 57  1  0  0  0  0
  7 22  2  0  0  0  0
  8 25  1  0  0  0  0
  8 61  1  0  0  0  0
  9 29  1  0  0  0  0
  9 36  1  0  0  0  0
 10 33  1  0  0  0  0
 10 37  1  0  0  0  0
 11 35  1  0  0  0  0
 11 66  1  0  0  0  0
 12 13  1  0  0  0  0
 12 14  1  0  0  0  0
 12 17  1  0  0  0  0
 12 38  1  0  0  0  0
 13 15  1  0  0  0  0
 13 22  1  0  0  0  0
 13 39  1  0  0  0  0
 14 40  1  0  0  0  0
 14 41  1  0  0  0  0
 15 23  1  0  0  0  0
 15 42  1  0  0  0  0
 15 43  1  0  0  0  0
 16 18  1  0  0  0  0
 16 19  1  0  0  0  0
 16 44  1  0  0  0  0
 17 24  1  0  0  0  0
 17 46  1  0  0  0  0
 17 47  1  0  0  0  0
 18 20  1  0  0  0  0
 18 45  1  0  0  0  0
 19 21  1  0  0  0  0
 19 48  1  0  0  0  0
 20 25  1  0  0  0  0
 20 49  1  0  0  0  0
 21 50  1  0  0  0  0
 23 27  2  0  0  0  0
 23 28  1  0  0  0  0
 24 31  2  0  0  0  0
 24 32  1  0  0  0  0
 25 51  1  0  0  0  0
 25 52  1  0  0  0  0
 26 29  2  0  0  0  0
 26 30  1  0  0  0  0
 27 29  1  0  0  0  0
 27 53  1  0  0  0  0
 28 30  2  0  0  0  0
 28 54  1  0  0  0  0
 30 58  1  0  0  0  0
 31 33  1  0  0  0  0
 31 59  1  0  0  0  0
 32 34  2  0  0  0  0
 32 60  1  0  0  0  0
 33 35  2  0  0  0  0
 34 35  1  0  0  0  0
 34 62  1  0  0  0  0
 36 63  1  0  0  0  0
 36 64  1  0  0  0  0
 36 65  1  0  0  0  0
 37 67  1  0  0  0  0
 37 68  1  0  0  0  0
 37 69  1  0  0  0  0
M  END
> <PUBCHEM_COMPOUND_CID>
11432381

> <PUBCHEM_CONFORMER_RMSD>
1.2

> <PUBCHEM_CONFORMER_DIVERSEORDER>
1
8
93
188
222
121
192
122
35
218
176
71
89
7
242
179
80
208
206
135
151
204
186
56
63
143
133
30
185
198
96
157
50
65
224
247
203
136
158
147
40
164
190
32
223
219
88
92
196
109
22
152
66
130
175
38
155
25
47
20
91
154
220
248
159
201
144
117
153
124
145
86
60
104
169
146
174
45
213
239
51
162
115
72
238
134
187
15
217
236
214
193
14
244
99
195
108
237
78
83
181
227
123
141
4
172
167
58
118
36
19
156
182
52
120
149
160
249
207
23
54
243
246
28
10
82
132
202
41
129
205
199
110
168
33
105
24
39
94
225
87
79
131
37
231
183
67
98
171
197
210
26
170
215
245
173
200
42
226
102
62
180
127
103
119
211
140
161
111
138
112
232
230
137
97
49
229
216
101
125
163
116
6
234
107
235
166
142
178
75
70
95
240
106
177
209
189
139
59
18
241
228
69
27
12
165
126
85
150
90
9
55
233
148
64
250
221
2
81
31
184
114
48
44
100
84
194
73
76
46
3
212
17
191
11
113
61
43
68
53
5
74
128
21
29
13
34
77
57
16

> <PUBCHEM_MMFF94_PARTIAL_CHARGES>
47
1 -0.43
10 -0.36
11 -0.53
13 0.06
14 0.28
15 0.14
16 0.28
17 0.14
18 0.28
19 0.28
2 -0.56
20 0.28
21 0.56
22 0.66
23 -0.14
24 -0.14
25 0.28
26 0.08
27 -0.15
28 -0.15
29 0.08
3 -0.36
30 -0.15
31 -0.15
32 -0.15
33 0.08
34 -0.15
35 0.08
36 0.28
37 0.28
4 -0.68
5 -0.68
53 0.15
54 0.15
55 0.4
56 0.4
57 0.4
58 0.15
59 0.15
6 -0.68
60 0.15
61 0.4
62 0.15
66 0.45
7 -0.57
8 -0.68
9 -0.36

> <PUBCHEM_EFFECTIVE_ROTOR_COUNT>
11

> <PUBCHEM_PHARMACOPHORE_FEATURES>
18
1 10 acceptor
1 11 donor
1 2 acceptor
1 3 acceptor
1 4 acceptor
1 4 donor
1 5 acceptor
1 5 donor
1 6 acceptor
1 6 donor
1 7 acceptor
1 8 acceptor
1 8 donor
1 9 acceptor
5 1 12 13 14 22 rings
6 2 16 18 19 20 21 rings
6 23 26 27 28 29 30 rings
6 24 31 32 33 34 35 rings

> <PUBCHEM_HEAVY_ATOM_COUNT>
37

> <PUBCHEM_ATOM_DEF_STEREO_COUNT>
7

> <PUBCHEM_ATOM_UDEF_STEREO_COUNT>
0

> <PUBCHEM_BOND_DEF_STEREO_COUNT>
0

> <PUBCHEM_BOND_UDEF_STEREO_COUNT>
0

> <PUBCHEM_ISOTOPIC_ATOM_COUNT>
0

> <PUBCHEM_COMPONENT_COUNT>
1

> <PUBCHEM_CACTVS_TAUTO_COUNT>
6

> <PUBCHEM_CONFORMER_ID>
00AE71BD00000001

> <PUBCHEM_MMFF94_ENERGY>
123.182

> <PUBCHEM_FEATURE_SELFOVERLAP>
91.422

> <PUBCHEM_SHAPE_FINGERPRINT>
10006869 2 17970607633229151338
11513181 2 17983861086355474263
12156800 1 17832737606937720708
12422481 6 18113901515951714504
13402501 40 17967801743778960405
14840074 17 18187368726824778148
15276724 80 18113898265631817964
15297060 5 17988927777491216123
16112460 7 18263081166645062048
20764821 26 17830724361923058659
21033648 29 16153423973766175195
24893992 56 17095795599657588595
25265897 201 17911269374495849454
3493558 16 18056476385949259202
392239 28 18335974303641384952
4144715 1 17968950810798083146
469060 322 16515965866079391044
46939830 39 16370735824393804652
513532 50 18058463027240189847
6287921 2 18126859191823398819

> <PUBCHEM_SHAPE_MULTIPOLES>
696.88
11.96
4.3
2.66
2.67
0.92
-0.94
-1.45
3.64
-0.58
-1.46
1
-0.74
-1.32

> <PUBCHEM_SHAPE_SELFOVERLAP>
1489.699

> <PUBCHEM_SHAPE_VOLUME>
384.5

> <PUBCHEM_COORDINATE_TYPE>
2
5
10

$$$$
