24758070
  -OEChem-09082009402D

100104  0     1  0  0  0  0  0999 V2000
    5.5010   -1.6589    0.0000 O   0  0  0  0  0  0  0  0  0  0  0  0
    4.2410   -0.3988    0.0000 O   0  0  0  0  0  0  0  0  0  0  0  0
   11.1495   -1.1190    0.0000 O   0  0  0  0  0  0  0  0  0  0  0  0
    2.5369    0.8800    0.0000 O   0  0  0  0  0  0  0  0  0  0  0  0
   10.7337   -3.0753    0.0000 O   0  0  0  0  0  0  0  0  0  0  0  0
   10.5258   -4.0535    0.0000 O   0  0  0  0  0  0  0  0  0  0  0  0
    2.5369    2.8800    0.0000 O   0  0  0  0  0  0  0  0  0  0  0  0
    6.0010    3.8800    0.0000 O   0  0  0  0  0  0  0  0  0  0  0  0
    7.1374   -3.3333    0.0000 O   0  0  0  0  0  0  0  0  0  0  0  0
    3.4030    5.3800    0.0000 O   0  0  0  0  0  0  0  0  0  0  0  0
    7.2568   -6.9368    0.0000 O   0  0  0  0  0  0  0  0  0  0  0  0
    6.8671    7.3800    0.0000 O   0  0  0  0  0  0  0  0  0  0  0  0
    8.7431   -8.2751    0.0000 O   0  0  0  0  0  0  0  0  0  0  0  0
    5.1350    8.3799    0.0000 O   0  0  0  0  0  0  0  0  0  0  0  0
    6.8100   -0.7078    0.0000 C   0  0  3  0  0  0  0  0  0  0  0  0
    6.0010   -0.1200    0.0000 C   0  0  3  0  0  0  0  0  0  0  0  0
    7.7611   -0.3988    0.0000 C   0  0  0  0  0  0  0  0  0  0  0  0
    6.5010   -1.6589    0.0000 C   0  0  0  0  0  0  0  0  0  0  0  0
    6.0010    0.8800    0.0000 C   0  0  0  0  0  0  0  0  0  0  0  0
    5.1920   -0.7078    0.0000 C   0  0  0  0  0  0  0  0  0  0  0  0
    8.5043   -1.0680    0.0000 C   0  0  0  0  0  0  0  0  0  0  0  0
    5.1350    1.3800    0.0000 C   0  0  0  0  0  0  0  0  0  0  0  0
    8.2963   -2.0461    0.0000 C   0  0  0  0  0  0  0  0  0  0  0  0
    5.1350    2.3800    0.0000 C   0  0  0  0  0  0  0  0  0  0  0  0
    9.0395   -2.7152    0.0000 C   0  0  0  0  0  0  0  0  0  0  0  0
    8.8316   -3.6934    0.0000 C   0  0  3  0  0  0  0  0  0  0  0  0
    4.2690    2.8800    0.0000 C   0  0  0  0  0  0  0  0  0  0  0  0
    9.4553   -0.7589    0.0000 C   0  0  0  0  0  0  0  0  0  0  0  0
    4.2690    3.8800    0.0000 C   0  0  3  0  0  0  0  0  0  0  0  0
    4.2690    0.8800    0.0000 C   0  0  0  0  0  0  0  0  0  0  0  0
    9.9906   -2.4062    0.0000 C   0  0  0  0  0  0  0  0  0  0  0  0
   10.1985   -1.4281    0.0000 C   0  0  0  0  0  0  0  0  0  0  0  0
    9.5747   -4.3625    0.0000 C   0  0  3  0  0  0  0  0  0  0  0  0
    3.4030    2.3800    0.0000 C   0  0  0  0  0  0  0  0  0  0  0  0
    3.4030    1.3800    0.0000 C   0  0  0  0  0  0  0  0  0  0  0  0
    5.1350    4.3800    0.0000 C   0  0  3  0  0  0  0  0  0  0  0  0
    7.8805   -4.0024    0.0000 C   0  0  0  0  0  0  0  0  0  0  0  0
    3.4030    4.3800    0.0000 C   0  0  0  0  0  0  0  0  0  0  0  0
    9.3668   -5.3406    0.0000 C   0  0  0  0  0  0  0  0  0  0  0  0
    5.1350    5.3800    0.0000 C   0  0  0  0  0  0  0  0  0  0  0  0
    8.4157   -5.6497    0.0000 C   0  0  0  0  0  0  0  0  0  0  0  0
   10.1100   -6.0098    0.0000 C   0  0  0  0  0  0  0  0  0  0  0  0
    6.0010    5.8800    0.0000 C   0  0  0  0  0  0  0  0  0  0  0  0
    4.2690    5.8800    0.0000 C   0  0  0  0  0  0  0  0  0  0  0  0
   11.3574   -0.1409    0.0000 C   0  0  0  0  0  0  0  0  0  0  0  0
    2.5369   -0.1200    0.0000 C   0  0  0  0  0  0  0  0  0  0  0  0
    8.2078   -6.6278    0.0000 C   0  0  0  0  0  0  0  0  0  0  0  0
    6.0010    6.8800    0.0000 C   0  0  0  0  0  0  0  0  0  0  0  0
    9.9020   -6.9879    0.0000 C   0  0  0  0  0  0  0  0  0  0  0  0
    4.2690    6.8800    0.0000 C   0  0  0  0  0  0  0  0  0  0  0  0
    8.9510   -7.2969    0.0000 C   0  0  0  0  0  0  0  0  0  0  0  0
    5.1350    7.3800    0.0000 C   0  0  0  0  0  0  0  0  0  0  0  0
    7.0489   -7.9150    0.0000 C   0  0  0  0  0  0  0  0  0  0  0  0
    6.8671    8.3799    0.0000 C   0  0  0  0  0  0  0  0  0  0  0  0
    6.9070   -0.0955    0.0000 H   0  0  0  0  0  0  0  0  0  0  0  0
    6.5535    0.1614    0.0000 H   0  0  0  0  0  0  0  0  0  0  0  0
    8.2497   -0.0171    0.0000 H   0  0  0  0  0  0  0  0  0  0  0  0
    7.4700    0.1486    0.0000 H   0  0  0  0  0  0  0  0  0  0  0  0
    6.4362   -2.2755    0.0000 H   0  0  0  0  0  0  0  0  0  0  0  0
    7.1075   -1.7878    0.0000 H   0  0  0  0  0  0  0  0  0  0  0  0
    6.6116    0.7723    0.0000 H   0  0  0  0  0  0  0  0  0  0  0  0
    6.2131    1.4626    0.0000 H   0  0  0  0  0  0  0  0  0  0  0  0
    7.7067   -2.2377    0.0000 H   0  0  0  0  0  0  0  0  0  0  0  0
    5.6720    2.6900    0.0000 H   0  0  0  0  0  0  0  0  0  0  0  0
    8.3708   -3.2785    0.0000 H   0  0  0  0  0  0  0  0  0  0  0  0
    9.5842   -0.1525    0.0000 H   0  0  0  0  0  0  0  0  0  0  0  0
    4.2690    4.5000    0.0000 H   0  0  0  0  0  0  0  0  0  0  0  0
    4.2690    0.2600    0.0000 H   0  0  0  0  0  0  0  0  0  0  0  0
   10.0355   -4.7774    0.0000 H   0  0  0  0  0  0  0  0  0  0  0  0
    5.1350    3.7600    0.0000 H   0  0  0  0  0  0  0  0  0  0  0  0
    7.3920   -4.3841    0.0000 H   0  0  0  0  0  0  0  0  0  0  0  0
    8.1716   -4.5498    0.0000 H   0  0  0  0  0  0  0  0  0  0  0  0
    2.7924    4.4876    0.0000 H   0  0  0  0  0  0  0  0  0  0  0  0
    3.1909    3.7973    0.0000 H   0  0  0  0  0  0  0  0  0  0  0  0
   11.3233   -2.8838    0.0000 H   0  0  0  0  0  0  0  0  0  0  0  0
   10.9865   -4.4684    0.0000 H   0  0  0  0  0  0  0  0  0  0  0  0
    2.0000    2.5700    0.0000 H   0  0  0  0  0  0  0  0  0  0  0  0
    6.5380    4.1899    0.0000 H   0  0  0  0  0  0  0  0  0  0  0  0
    7.9550   -5.2348    0.0000 H   0  0  0  0  0  0  0  0  0  0  0  0
   10.6996   -5.8182    0.0000 H   0  0  0  0  0  0  0  0  0  0  0  0
    6.5380    5.5700    0.0000 H   0  0  0  0  0  0  0  0  0  0  0  0
    3.7320    5.5700    0.0000 H   0  0  0  0  0  0  0  0  0  0  0  0
    6.5477   -3.5248    0.0000 H   0  0  0  0  0  0  0  0  0  0  0  0
    2.8660    5.6899    0.0000 H   0  0  0  0  0  0  0  0  0  0  0  0
   11.9639   -0.2698    0.0000 H   0  0  0  0  0  0  0  0  0  0  0  0
   11.4863    0.4656    0.0000 H   0  0  0  0  0  0  0  0  0  0  0  0
   10.7510   -0.0120    0.0000 H   0  0  0  0  0  0  0  0  0  0  0  0
    1.9169   -0.1200    0.0000 H   0  0  0  0  0  0  0  0  0  0  0  0
    2.5369   -0.7400    0.0000 H   0  0  0  0  0  0  0  0  0  0  0  0
    3.1569   -0.1200    0.0000 H   0  0  0  0  0  0  0  0  0  0  0  0
   10.3628   -7.4028    0.0000 H   0  0  0  0  0  0  0  0  0  0  0  0
    3.7320    7.1900    0.0000 H   0  0  0  0  0  0  0  0  0  0  0  0
    9.2038   -8.6900    0.0000 H   0  0  0  0  0  0  0  0  0  0  0  0
    4.5981    8.6900    0.0000 H   0  0  0  0  0  0  0  0  0  0  0  0
    6.4424   -7.7861    0.0000 H   0  0  0  0  0  0  0  0  0  0  0  0
    6.9200   -8.5214    0.0000 H   0  0  0  0  0  0  0  0  0  0  0  0
    7.6553   -8.0439    0.0000 H   0  0  0  0  0  0  0  0  0  0  0  0
    7.4871    8.3799    0.0000 H   0  0  0  0  0  0  0  0  0  0  0  0
    6.8671    9.0000    0.0000 H   0  0  0  0  0  0  0  0  0  0  0  0
    6.2471    8.3799    0.0000 H   0  0  0  0  0  0  0  0  0  0  0  0
  1 18  1  0  0  0  0
  1 20  1  0  0  0  0
  2 20  2  0  0  0  0
  3 32  1  0  0  0  0
  3 45  1  0  0  0  0
  4 35  1  0  0  0  0
  4 46  1  0  0  0  0
  5 31  1  0  0  0  0
  5 75  1  0  0  0  0
  6 33  1  0  0  0  0
  6 76  1  0  0  0  0
  7 34  1  0  0  0  0
  7 77  1  0  0  0  0
  8 36  1  0  0  0  0
  8 78  1  0  0  0  0
  9 37  1  0  0  0  0
  9 83  1  0  0  0  0
 10 38  1  0  0  0  0
 10 84  1  0  0  0  0
 11 47  1  0  0  0  0
 11 53  1  0  0  0  0
 12 48  1  0  0  0  0
 12 54  1  0  0  0  0
 13 51  1  0  0  0  0
 13 93  1  0  0  0  0
 14 52  1  0  0  0  0
 14 94  1  0  0  0  0
 15 16  1  0  0  0  0
 15 17  1  0  0  0  0
 15 18  1  0  0  0  0
 15 55  1  0  0  0  0
 16 19  1  0  0  0  0
 16 20  1  0  0  0  0
 16 56  1  0  0  0  0
 17 21  1  0  0  0  0
 17 57  1  0  0  0  0
 17 58  1  0  0  0  0
 18 59  1  0  0  0  0
 18 60  1  0  0  0  0
 19 22  1  0  0  0  0
 19 61  1  0  0  0  0
 19 62  1  0  0  0  0
 21 23  2  0  0  0  0
 21 28  1  0  0  0  0
 22 24  2  0  0  0  0
 22 30  1  0  0  0  0
 23 25  1  0  0  0  0
 23 63  1  0  0  0  0
 24 27  1  0  0  0  0
 24 64  1  0  0  0  0
 25 26  1  0  0  0  0
 25 31  2  0  0  0  0
 26 33  1  0  0  0  0
 26 37  1  0  0  0  0
 26 65  1  0  0  0  0
 27 29  1  0  0  0  0
 27 34  2  0  0  0  0
 28 32  2  0  0  0  0
 28 66  1  0  0  0  0
 29 36  1  0  0  0  0
 29 38  1  0  0  0  0
 29 67  1  0  0  0  0
 30 35  2  0  0  0  0
 30 68  1  0  0  0  0
 31 32  1  0  0  0  0
 33 39  1  0  0  0  0
 33 69  1  0  0  0  0
 34 35  1  0  0  0  0
 36 40  1  0  0  0  0
 36 70  1  0  0  0  0
 37 71  1  0  0  0  0
 37 72  1  0  0  0  0
 38 73  1  0  0  0  0
 38 74  1  0  0  0  0
 39 41  2  0  0  0  0
 39 42  1  0  0  0  0
 40 43  2  0  0  0  0
 40 44  1  0  0  0  0
 41 47  1  0  0  0  0
 41 79  1  0  0  0  0
 42 49  2  0  0  0  0
 42 80  1  0  0  0  0
 43 48  1  0  0  0  0
 43 81  1  0  0  0  0
 44 50  2  0  0  0  0
 44 82  1  0  0  0  0
 45 85  1  0  0  0  0
 45 86  1  0  0  0  0
 45 87  1  0  0  0  0
 46 88  1  0  0  0  0
 46 89  1  0  0  0  0
 46 90  1  0  0  0  0
 47 51  2  0  0  0  0
 48 52  2  0  0  0  0
 49 51  1  0  0  0  0
 49 91  1  0  0  0  0
 50 52  1  0  0  0  0
 50 92  1  0  0  0  0
 53 95  1  0  0  0  0
 53 96  1  0  0  0  0
 53 97  1  0  0  0  0
 54 98  1  0  0  0  0
 54 99  1  0  0  0  0
 54100  1  0  0  0  0
M  END
> <PUBCHEM_COMPOUND_CID>
24758070

> <PUBCHEM_COMPOUND_CANONICALIZED>
1

> <PUBCHEM_CACTVS_COMPLEXITY>
1150

> <PUBCHEM_CACTVS_HBOND_ACCEPTOR>
14

> <PUBCHEM_CACTVS_HBOND_DONOR>
8

> <PUBCHEM_CACTVS_ROTATABLE_BOND>
16

> <PUBCHEM_CACTVS_SUBSKEYS>
AAADcfB8PAAAAAAAAAAAAAAAAAAAASAAAAAwYMGAAAAAAAABVAAAGgAACAAADRSgmAIyDoAABgCIAiDSCAACCAAgIAAIiAEGiIgNNjKGMRqCcCMlwBELuAfK6PyOoAADAAAIQABAAAYAABCAAAAAAAAAAA==

> <PUBCHEM_IUPAC_OPENEYE_NAME>
3,4-bis[[4-hydroxy-3-[2-hydroxy-2-(4-hydroxy-3-methoxy-phenyl)-1-(hydroxymethyl)ethyl]-5-methoxy-phenyl]methyl]tetrahydrofuran-2-one

> <PUBCHEM_IUPAC_CAS_NAME>
3,4-bis[[3-[1,3-dihydroxy-1-(4-hydroxy-3-methoxyphenyl)propan-2-yl]-4-hydroxy-5-methoxyphenyl]methyl]-2-oxolanone

> <PUBCHEM_IUPAC_NAME_MARKUP>
3,4-bis[[3-[1,3-dihydroxy-1-(4-hydroxy-3-methoxyphenyl)propan-2-yl]-4-hydroxy-5-methoxyphenyl]methyl]oxolan-2-one

> <PUBCHEM_IUPAC_NAME>
3,4-bis[[3-[1,3-dihydroxy-1-(4-hydroxy-3-methoxyphenyl)propan-2-yl]-4-hydroxy-5-methoxyphenyl]methyl]oxolan-2-one

> <PUBCHEM_IUPAC_SYSTEMATIC_NAME>
3,4-bis[[3-methoxy-5-[1-(3-methoxy-4-oxidanyl-phenyl)-1,3-bis(oxidanyl)propan-2-yl]-4-oxidanyl-phenyl]methyl]oxolan-2-one

> <PUBCHEM_IUPAC_TRADITIONAL_NAME>
3,4-bis[4-hydroxy-3-[2-hydroxy-2-(4-hydroxy-3-methoxy-phenyl)-1-methylol-ethyl]-5-methoxy-benzyl]tetrahydrofuran-2-one

> <PUBCHEM_IUPAC_INCHI>
InChI=1S/C40H46O14/c1-50-32-15-22(5-7-30(32)43)36(45)28(17-41)26-11-20(13-34(52-3)38(26)47)9-24-19-54-40(49)25(24)10-21-12-27(39(48)35(14-21)53-4)29(18-42)37(46)23-6-8-31(44)33(16-23)51-2/h5-8,11-16,24-25,28-29,36-37,41-48H,9-10,17-19H2,1-4H3

> <PUBCHEM_IUPAC_INCHIKEY>
ZBAWFXNLUOUBMU-UHFFFAOYSA-N

> <PUBCHEM_XLOGP3_AA>
2.9

> <PUBCHEM_EXACT_MASS>
750.288756

> <PUBCHEM_MOLECULAR_FORMULA>
C40H46O14

> <PUBCHEM_MOLECULAR_WEIGHT>
750.8

> <PUBCHEM_OPENEYE_CAN_SMILES>
COC1=CC(=CC(=C1O)C(CO)C(C2=CC(=C(C=C2)O)OC)O)CC3COC(=O)C3CC4=CC(=C(C(=C4)OC)O)C(CO)C(C5=CC(=C(C=C5)O)OC)O

> <PUBCHEM_OPENEYE_ISO_SMILES>
COC1=CC(=CC(=C1O)C(CO)C(C2=CC(=C(C=C2)O)OC)O)CC3COC(=O)C3CC4=CC(=C(C(=C4)OC)O)C(CO)C(C5=CC(=C(C=C5)O)OC)O

> <PUBCHEM_CACTVS_TPSA>
225

> <PUBCHEM_MONOISOTOPIC_WEIGHT>
750.288756

> <PUBCHEM_TOTAL_CHARGE>
0

> <PUBCHEM_HEAVY_ATOM_COUNT>
54

> <PUBCHEM_ATOM_DEF_STEREO_COUNT>
0

> <PUBCHEM_ATOM_UDEF_STEREO_COUNT>
6

> <PUBCHEM_BOND_DEF_STEREO_COUNT>
0

> <PUBCHEM_BOND_UDEF_STEREO_COUNT>
0

> <PUBCHEM_ISOTOPIC_ATOM_COUNT>
0

> <PUBCHEM_COMPONENT_COUNT>
1

> <PUBCHEM_CACTVS_TAUTO_COUNT>
-1

> <PUBCHEM_COORDINATE_TYPE>
1
5
255

> <PUBCHEM_BONDANNOTATIONS>
15  17  3
16  19  3
21  23  8
21  28  8
22  24  8
22  30  8
23  25  8
24  27  8
25  31  8
26  37  3
27  34  8
28  32  8
29  38  3
30  35  8
31  32  8
34  35  8
39  41  8
39  42  8
40  43  8
40  44  8
41  47  8
42  49  8
43  48  8
44  50  8
47  51  8
48  52  8
49  51  8
50  52  8
33  6  3
36  8  3

$$$$
