46173975
  -OEChem-09082009412D

100105  0     1  0  0  0  0  0999 V2000
    4.0596    4.7508    0.0000 O   0  0  0  0  0  0  0  0  0  0  0  0
    7.0468   -4.7508    0.0000 O   0  0  0  0  0  0  0  0  0  0  0  0
    4.5208    6.4720    0.0000 O   0  0  0  0  0  0  0  0  0  0  0  0
    6.5856   -6.4720    0.0000 O   0  0  0  0  0  0  0  0  0  0  0  0
    3.9629    0.8492    0.0000 O   0  0  0  0  0  0  0  0  0  0  0  0
    3.7550   -0.1290    0.0000 O   0  0  0  0  0  0  0  0  0  0  0  0
    4.7762    8.5872    0.0000 O   0  0  0  0  0  0  0  0  0  0  0  0
    6.3301   -8.5872    0.0000 O   0  0  0  0  0  0  0  0  0  0  0  0
    8.2403    8.5872    0.0000 O   0  0  0  0  0  0  0  0  0  0  0  0
    2.8660   -8.5872    0.0000 O   0  0  0  0  0  0  0  0  0  0  0  0
    6.5083    9.5872    0.0000 O   0  0  0  0  0  0  0  0  0  0  0  0
    4.5981   -9.5872    0.0000 O   0  0  0  0  0  0  0  0  0  0  0  0
    5.5377    4.0926    0.0000 C   0  0  3  0  0  0  0  0  0  0  0  0
    5.5686   -4.0926    0.0000 C   0  0  3  0  0  0  0  0  0  0  0  0
    5.6422    5.0872    0.0000 C   0  0  3  0  0  0  0  0  0  0  0  0
    5.4641   -5.0872    0.0000 C   0  0  3  0  0  0  0  0  0  0  0  0
    6.2809    3.4235    0.0000 C   0  0  0  0  0  0  0  0  0  0  0  0
    4.8255   -3.4235    0.0000 C   0  0  0  0  0  0  0  0  0  0  0  0
    4.5596    3.8847    0.0000 C   0  0  0  0  0  0  0  0  0  0  0  0
    6.5468   -3.8847    0.0000 C   0  0  0  0  0  0  0  0  0  0  0  0
    6.5083    5.5872    0.0000 C   0  0  0  0  0  0  0  0  0  0  0  0
    4.5981   -5.5872    0.0000 C   0  0  0  0  0  0  0  0  0  0  0  0
    4.7287    5.4939    0.0000 C   0  0  0  0  0  0  0  0  0  0  0  0
    6.3776   -5.4939    0.0000 C   0  0  0  0  0  0  0  0  0  0  0  0
    6.0730    2.4454    0.0000 C   0  0  0  0  0  0  0  0  0  0  0  0
    5.0334   -2.4454    0.0000 C   0  0  0  0  0  0  0  0  0  0  0  0
    6.5083    6.5872    0.0000 C   0  0  0  0  0  0  0  0  0  0  0  0
    4.5981   -6.5872    0.0000 C   0  0  0  0  0  0  0  0  0  0  0  0
    5.1219    2.1364    0.0000 C   0  0  0  0  0  0  0  0  0  0  0  0
    4.2902   -1.7762    0.0000 C   0  0  0  0  0  0  0  0  0  0  0  0
    6.8161    1.7762    0.0000 C   0  0  0  0  0  0  0  0  0  0  0  0
    5.9844   -2.1364    0.0000 C   0  0  0  0  0  0  0  0  0  0  0  0
    5.6571    0.4891    0.0000 C   0  0  0  0  0  0  0  0  0  0  0  0
    5.4492   -0.4891    0.0000 C   0  0  0  0  0  0  0  0  0  0  0  0
    4.9140    1.1582    0.0000 C   0  0  0  0  0  0  0  0  0  0  0  0
    4.4982   -0.7981    0.0000 C   0  0  0  0  0  0  0  0  0  0  0  0
    6.6082    0.7981    0.0000 C   0  0  0  0  0  0  0  0  0  0  0  0
    6.1924   -1.1582    0.0000 C   0  0  0  0  0  0  0  0  0  0  0  0
    7.3743    7.0872    0.0000 C   0  0  0  0  0  0  0  0  0  0  0  0
    3.7320   -7.0872    0.0000 C   0  0  0  0  0  0  0  0  0  0  0  0
    5.6422    7.0872    0.0000 C   0  0  0  0  0  0  0  0  0  0  0  0
    5.4641   -7.0872    0.0000 C   0  0  0  0  0  0  0  0  0  0  0  0
    5.6422    8.0872    0.0000 C   0  0  0  0  0  0  0  0  0  0  0  0
    5.4641   -8.0872    0.0000 C   0  0  0  0  0  0  0  0  0  0  0  0
    7.3743    8.0872    0.0000 C   0  0  0  0  0  0  0  0  0  0  0  0
    3.7320   -8.0872    0.0000 C   0  0  0  0  0  0  0  0  0  0  0  0
    6.5083    8.5872    0.0000 C   0  0  0  0  0  0  0  0  0  0  0  0
    4.5981   -8.5872    0.0000 C   0  0  0  0  0  0  0  0  0  0  0  0
    3.2198    1.5183    0.0000 C   0  0  0  0  0  0  0  0  0  0  0  0
    2.8040   -0.4380    0.0000 C   0  0  0  0  0  0  0  0  0  0  0  0
    3.9102    8.0872    0.0000 C   0  0  0  0  0  0  0  0  0  0  0  0
    6.3301   -9.5872    0.0000 C   0  0  0  0  0  0  0  0  0  0  0  0
    9.1064    8.0872    0.0000 C   0  0  0  0  0  0  0  0  0  0  0  0
    2.0000   -8.0872    0.0000 C   0  0  0  0  0  0  0  0  0  0  0  0
    5.3772    3.4938    0.0000 H   0  0  0  0  0  0  0  0  0  0  0  0
    5.7291   -3.4938    0.0000 H   0  0  0  0  0  0  0  0  0  0  0  0
    5.6098    5.7063    0.0000 H   0  0  0  0  0  0  0  0  0  0  0  0
    5.4966   -5.7063    0.0000 H   0  0  0  0  0  0  0  0  0  0  0  0
    6.8557    3.1913    0.0000 H   0  0  0  0  0  0  0  0  0  0  0  0
    6.6094    3.9493    0.0000 H   0  0  0  0  0  0  0  0  0  0  0  0
    4.2506   -3.1913    0.0000 H   0  0  0  0  0  0  0  0  0  0  0  0
    4.4969   -3.9493    0.0000 H   0  0  0  0  0  0  0  0  0  0  0  0
    3.9932    3.6326    0.0000 H   0  0  0  0  0  0  0  0  0  0  0  0
    4.7512    3.2951    0.0000 H   0  0  0  0  0  0  0  0  0  0  0  0
    7.1132   -3.6326    0.0000 H   0  0  0  0  0  0  0  0  0  0  0  0
    6.3552   -3.2951    0.0000 H   0  0  0  0  0  0  0  0  0  0  0  0
    6.7203    5.0046    0.0000 H   0  0  0  0  0  0  0  0  0  0  0  0
    7.1189    5.6948    0.0000 H   0  0  0  0  0  0  0  0  0  0  0  0
    4.3860   -5.0046    0.0000 H   0  0  0  0  0  0  0  0  0  0  0  0
    3.9875   -5.6948    0.0000 H   0  0  0  0  0  0  0  0  0  0  0  0
    4.6612    2.5512    0.0000 H   0  0  0  0  0  0  0  0  0  0  0  0
    3.7006   -1.9678    0.0000 H   0  0  0  0  0  0  0  0  0  0  0  0
    7.4058    1.9678    0.0000 H   0  0  0  0  0  0  0  0  0  0  0  0
    6.4452   -2.5512    0.0000 H   0  0  0  0  0  0  0  0  0  0  0  0
    7.0689    0.3832    0.0000 H   0  0  0  0  0  0  0  0  0  0  0  0
    6.7820   -0.9666    0.0000 H   0  0  0  0  0  0  0  0  0  0  0  0
    7.9112    6.7772    0.0000 H   0  0  0  0  0  0  0  0  0  0  0  0
    3.1951   -6.7772    0.0000 H   0  0  0  0  0  0  0  0  0  0  0  0
    5.1053    6.7772    0.0000 H   0  0  0  0  0  0  0  0  0  0  0  0
    6.0010   -6.7772    0.0000 H   0  0  0  0  0  0  0  0  0  0  0  0
    3.6346    1.9791    0.0000 H   0  0  0  0  0  0  0  0  0  0  0  0
    2.7590    1.9332    0.0000 H   0  0  0  0  0  0  0  0  0  0  0  0
    2.8049    1.0576    0.0000 H   0  0  0  0  0  0  0  0  0  0  0  0
    2.6124    0.1517    0.0000 H   0  0  0  0  0  0  0  0  0  0  0  0
    2.2143   -0.6296    0.0000 H   0  0  0  0  0  0  0  0  0  0  0  0
    2.9956   -1.0276    0.0000 H   0  0  0  0  0  0  0  0  0  0  0  0
    7.0452    9.8972    0.0000 H   0  0  0  0  0  0  0  0  0  0  0  0
    4.0611   -9.8972    0.0000 H   0  0  0  0  0  0  0  0  0  0  0  0
    3.6002    8.6241    0.0000 H   0  0  0  0  0  0  0  0  0  0  0  0
    3.3733    7.7772    0.0000 H   0  0  0  0  0  0  0  0  0  0  0  0
    4.2202    7.5502    0.0000 H   0  0  0  0  0  0  0  0  0  0  0  0
    5.7101   -9.5872    0.0000 H   0  0  0  0  0  0  0  0  0  0  0  0
    6.3301  -10.2072    0.0000 H   0  0  0  0  0  0  0  0  0  0  0  0
    6.9501   -9.5872    0.0000 H   0  0  0  0  0  0  0  0  0  0  0  0
    8.7964    7.5502    0.0000 H   0  0  0  0  0  0  0  0  0  0  0  0
    9.6433    7.7772    0.0000 H   0  0  0  0  0  0  0  0  0  0  0  0
    9.4164    8.6241    0.0000 H   0  0  0  0  0  0  0  0  0  0  0  0
    2.3100   -7.5502    0.0000 H   0  0  0  0  0  0  0  0  0  0  0  0
    1.4631   -7.7772    0.0000 H   0  0  0  0  0  0  0  0  0  0  0  0
    1.6900   -8.6241    0.0000 H   0  0  0  0  0  0  0  0  0  0  0  0
  1 19  1  0  0  0  0
  1 23  1  0  0  0  0
  2 20  1  0  0  0  0
  2 24  1  0  0  0  0
  3 23  2  0  0  0  0
  4 24  2  0  0  0  0
  5 35  1  0  0  0  0
  5 49  1  0  0  0  0
  6 36  1  0  0  0  0
  6 50  1  0  0  0  0
  7 43  1  0  0  0  0
  7 51  1  0  0  0  0
  8 44  1  0  0  0  0
  8 52  1  0  0  0  0
  9 45  1  0  0  0  0
  9 53  1  0  0  0  0
 10 46  1  0  0  0  0
 10 54  1  0  0  0  0
 11 47  1  0  0  0  0
 11 87  1  0  0  0  0
 12 48  1  0  0  0  0
 12 88  1  0  0  0  0
 13 15  1  0  0  0  0
 13 17  1  0  0  0  0
 13 19  1  0  0  0  0
 13 55  1  0  0  0  0
 14 16  1  0  0  0  0
 14 18  1  0  0  0  0
 14 20  1  0  0  0  0
 14 56  1  0  0  0  0
 15 21  1  0  0  0  0
 15 23  1  0  0  0  0
 15 57  1  0  0  0  0
 16 22  1  0  0  0  0
 16 24  1  0  0  0  0
 16 58  1  0  0  0  0
 17 25  1  0  0  0  0
 17 59  1  0  0  0  0
 17 60  1  0  0  0  0
 18 26  1  0  0  0  0
 18 61  1  0  0  0  0
 18 62  1  0  0  0  0
 19 63  1  0  0  0  0
 19 64  1  0  0  0  0
 20 65  1  0  0  0  0
 20 66  1  0  0  0  0
 21 27  1  0  0  0  0
 21 67  1  0  0  0  0
 21 68  1  0  0  0  0
 22 28  1  0  0  0  0
 22 69  1  0  0  0  0
 22 70  1  0  0  0  0
 25 29  2  0  0  0  0
 25 31  1  0  0  0  0
 26 30  2  0  0  0  0
 26 32  1  0  0  0  0
 27 39  2  0  0  0  0
 27 41  1  0  0  0  0
 28 40  2  0  0  0  0
 28 42  1  0  0  0  0
 29 35  1  0  0  0  0
 29 71  1  0  0  0  0
 30 36  1  0  0  0  0
 30 72  1  0  0  0  0
 31 37  2  0  0  0  0
 31 73  1  0  0  0  0
 32 38  2  0  0  0  0
 32 74  1  0  0  0  0
 33 34  1  0  0  0  0
 33 35  2  0  0  0  0
 33 37  1  0  0  0  0
 34 36  2  0  0  0  0
 34 38  1  0  0  0  0
 37 75  1  0  0  0  0
 38 76  1  0  0  0  0
 39 45  1  0  0  0  0
 39 77  1  0  0  0  0
 40 46  1  0  0  0  0
 40 78  1  0  0  0  0
 41 43  2  0  0  0  0
 41 79  1  0  0  0  0
 42 44  2  0  0  0  0
 42 80  1  0  0  0  0
 43 47  1  0  0  0  0
 44 48  1  0  0  0  0
 45 47  2  0  0  0  0
 46 48  2  0  0  0  0
 49 81  1  0  0  0  0
 49 82  1  0  0  0  0
 49 83  1  0  0  0  0
 50 84  1  0  0  0  0
 50 85  1  0  0  0  0
 50 86  1  0  0  0  0
 51 89  1  0  0  0  0
 51 90  1  0  0  0  0
 51 91  1  0  0  0  0
 52 92  1  0  0  0  0
 52 93  1  0  0  0  0
 52 94  1  0  0  0  0
 53 95  1  0  0  0  0
 53 96  1  0  0  0  0
 53 97  1  0  0  0  0
 54 98  1  0  0  0  0
 54 99  1  0  0  0  0
 54100  1  0  0  0  0
M  END
> <PUBCHEM_COMPOUND_CID>
46173975

> <PUBCHEM_COMPOUND_CANONICALIZED>
1

> <PUBCHEM_CACTVS_COMPLEXITY>
1080

> <PUBCHEM_CACTVS_HBOND_ACCEPTOR>
12

> <PUBCHEM_CACTVS_HBOND_DONOR>
2

> <PUBCHEM_CACTVS_ROTATABLE_BOND>
15

> <PUBCHEM_CACTVS_SUBSKEYS>
AAADcfB8PAAAAAAAAAAAAAAAAAAAASJAAAAwYMGAAAAAAAABVAAAGgAACAAADQSgmAIyDoAABgCIAiDSCAACCAAgIAAIiAEGiIgNJzKGMRqCcCMlwBULuAfK6PyO4AABCAAIQADAAAIQABCAAAAAAAAAAA==

> <PUBCHEM_IUPAC_OPENEYE_NAME>
3-[(4-hydroxy-3,5-dimethoxy-phenyl)methyl]-4-[[4-[4-[[4-[(4-hydroxy-3,5-dimethoxy-phenyl)methyl]-5-oxo-tetrahydrofuran-3-yl]methyl]-2-methoxy-phenyl]-3-methoxy-phenyl]methyl]tetrahydrofuran-2-one

> <PUBCHEM_IUPAC_CAS_NAME>
3-[(4-hydroxy-3,5-dimethoxyphenyl)methyl]-4-[[4-[4-[[4-[(4-hydroxy-3,5-dimethoxyphenyl)methyl]-5-oxo-3-oxolanyl]methyl]-2-methoxyphenyl]-3-methoxyphenyl]methyl]-2-oxolanone

> <PUBCHEM_IUPAC_NAME_MARKUP>
3-[(4-hydroxy-3,5-dimethoxyphenyl)methyl]-4-[[4-[4-[[4-[(4-hydroxy-3,5-dimethoxyphenyl)methyl]-5-oxooxolan-3-yl]methyl]-2-methoxyphenyl]-3-methoxyphenyl]methyl]oxolan-2-one

> <PUBCHEM_IUPAC_NAME>
3-[(4-hydroxy-3,5-dimethoxyphenyl)methyl]-4-[[4-[4-[[4-[(4-hydroxy-3,5-dimethoxyphenyl)methyl]-5-oxooxolan-3-yl]methyl]-2-methoxyphenyl]-3-methoxyphenyl]methyl]oxolan-2-one

> <PUBCHEM_IUPAC_SYSTEMATIC_NAME>
3-[(3,5-dimethoxy-4-oxidanyl-phenyl)methyl]-4-[[4-[4-[[4-[(3,5-dimethoxy-4-oxidanyl-phenyl)methyl]-5-oxidanylidene-oxolan-3-yl]methyl]-2-methoxy-phenyl]-3-methoxy-phenyl]methyl]oxolan-2-one

> <PUBCHEM_IUPAC_TRADITIONAL_NAME>
3-(4-hydroxy-3,5-dimethoxy-benzyl)-4-[4-[4-[[4-(4-hydroxy-3,5-dimethoxy-benzyl)-5-keto-tetrahydrofuran-3-yl]methyl]-2-methoxy-phenyl]-3-methoxy-benzyl]tetrahydrofuran-2-one

> <PUBCHEM_IUPAC_INCHI>
InChI=1S/C42H46O12/c1-47-33-15-23(11-27-21-53-41(45)31(27)13-25-17-35(49-3)39(43)36(18-25)50-4)7-9-29(33)30-10-8-24(16-34(30)48-2)12-28-22-54-42(46)32(28)14-26-19-37(51-5)40(44)38(20-26)52-6/h7-10,15-20,27-28,31-32,43-44H,11-14,21-22H2,1-6H3

> <PUBCHEM_IUPAC_INCHIKEY>
TYEFCPJCPSRVMT-UHFFFAOYSA-N

> <PUBCHEM_XLOGP3_AA>
6.9

> <PUBCHEM_EXACT_MASS>
742.298927

> <PUBCHEM_MOLECULAR_FORMULA>
C42H46O12

> <PUBCHEM_MOLECULAR_WEIGHT>
742.8

> <PUBCHEM_OPENEYE_CAN_SMILES>
COC1=CC(=CC(=C1O)OC)CC2C(COC2=O)CC3=CC(=C(C=C3)C4=C(C=C(C=C4)CC5COC(=O)C5CC6=CC(=C(C(=C6)OC)O)OC)OC)OC

> <PUBCHEM_OPENEYE_ISO_SMILES>
COC1=CC(=CC(=C1O)OC)CC2C(COC2=O)CC3=CC(=C(C=C3)C4=C(C=C(C=C4)CC5COC(=O)C5CC6=CC(=C(C(=C6)OC)O)OC)OC)OC

> <PUBCHEM_CACTVS_TPSA>
148

> <PUBCHEM_MONOISOTOPIC_WEIGHT>
742.298927

> <PUBCHEM_TOTAL_CHARGE>
0

> <PUBCHEM_HEAVY_ATOM_COUNT>
54

> <PUBCHEM_ATOM_DEF_STEREO_COUNT>
0

> <PUBCHEM_ATOM_UDEF_STEREO_COUNT>
4

> <PUBCHEM_BOND_DEF_STEREO_COUNT>
0

> <PUBCHEM_BOND_UDEF_STEREO_COUNT>
0

> <PUBCHEM_ISOTOPIC_ATOM_COUNT>
0

> <PUBCHEM_COMPONENT_COUNT>
1

> <PUBCHEM_CACTVS_TAUTO_COUNT>
-1

> <PUBCHEM_COORDINATE_TYPE>
1
5
255

> <PUBCHEM_BONDANNOTATIONS>
13  17  3
14  18  3
15  21  3
16  22  3
25  29  8
25  31  8
26  30  8
26  32  8
27  39  8
27  41  8
28  40  8
28  42  8
29  35  8
30  36  8
31  37  8
32  38  8
33  35  8
33  37  8
34  36  8
34  38  8
39  45  8
40  46  8
41  43  8
42  44  8
43  47  8
44  48  8
45  47  8
46  48  8

$$$$
