5490007
  -OEChem-08232009083D

 77 80  0     1  0  0  0  0  0999 V2000
    4.8995    2.8525    0.4255 O   0  0  0  0  0  0  0  0  0  0  0  0
    8.0334   -0.9462   -0.5377 O   0  0  0  0  0  0  0  0  0  0  0  0
   -0.4313   -0.0977   -0.0752 C   0  0  1  0  0  0  0  0  0  0  0  0
    0.5531    0.9694   -0.5965 C   0  0  2  0  0  0  0  0  0  0  0  0
    1.9301    0.8970    0.0730 C   0  0  1  0  0  0  0  0  0  0  0  0
   -1.6850    0.3001   -0.8921 C   0  0  2  0  0  0  0  0  0  0  0  0
    2.5449   -0.5141   -0.1824 C   0  0  2  0  0  0  0  0  0  0  0  0
    0.1506   -1.4744   -0.4220 C   0  0  0  0  0  0  0  0  0  0  0  0
   -0.2438    2.2679   -0.5073 C   0  0  0  0  0  0  0  0  0  0  0  0
    1.5573   -1.6600    0.1726 C   0  0  0  0  0  0  0  0  0  0  0  0
   -1.6896    1.8451   -0.8258 C   0  0  0  0  0  0  0  0  0  0  0  0
    3.9625   -0.6723    0.4843 C   0  0  2  0  0  0  0  0  0  0  0  0
   -3.0067   -0.3152   -0.4551 C   0  0  1  0  0  0  0  0  0  0  0  0
    2.8546    1.9912   -0.4652 C   0  0  0  0  0  0  0  0  0  0  0  0
   -0.7069   -0.0135    1.4469 C   0  0  0  0  0  0  0  0  0  0  0  0
    4.8506    0.4974    0.0938 C   0  0  0  0  0  0  0  0  0  0  0  0
    4.6127   -1.9918   -0.0193 C   0  0  0  0  0  0  0  0  0  0  0  0
    4.2557    1.8647    0.0774 C   0  0  0  0  0  0  0  0  0  0  0  0
    3.8798   -0.7047    2.0280 C   0  0  0  0  0  0  0  0  0  0  0  0
   -4.1537    0.2106   -1.3438 C   0  0  0  0  0  0  0  0  0  0  0  0
   -2.9106   -1.8443   -0.4852 C   0  0  0  0  0  0  0  0  0  0  0  0
    6.1013   -2.0938    0.2889 C   0  0  0  0  0  0  0  0  0  0  0  0
    6.1436    0.4191   -0.2516 C   0  0  0  0  0  0  0  0  0  0  0  0
   -5.5444   -0.3928   -1.0869 C   0  0  0  0  0  0  0  0  0  0  0  0
    6.8480   -0.8844   -0.2161 C   0  0  0  0  0  0  0  0  0  0  0  0
   -6.1673   -0.1151    0.3061 C   0  0  2  0  0  0  0  0  0  0  0  0
   -7.5237   -0.8624    0.5109 C   0  0  0  0  0  0  0  0  0  0  0  0
   -6.2701    1.4093    0.5607 C   0  0  0  0  0  0  0  0  0  0  0  0
   -8.6588   -0.3463   -0.3777 C   0  0  0  0  0  0  0  0  0  0  0  0
   -7.3825   -2.3798    0.3352 C   0  0  0  0  0  0  0  0  0  0  0  0
   -6.8037    1.7844    1.9368 C   0  0  0  0  0  0  0  0  0  0  0  0
    0.7191    0.7903   -1.6725 H   0  0  0  0  0  0  0  0  0  0  0  0
    1.8181    1.0597    1.1499 H   0  0  0  0  0  0  0  0  0  0  0  0
   -1.5108    0.0243   -1.9439 H   0  0  0  0  0  0  0  0  0  0  0  0
    2.6978   -0.5858   -1.2718 H   0  0  0  0  0  0  0  0  0  0  0  0
    0.2121   -1.5962   -1.5110 H   0  0  0  0  0  0  0  0  0  0  0  0
   -0.4468   -2.3050   -0.0489 H   0  0  0  0  0  0  0  0  0  0  0  0
   -0.1859    2.7062    0.4953 H   0  0  0  0  0  0  0  0  0  0  0  0
    0.1158    3.0188   -1.2183 H   0  0  0  0  0  0  0  0  0  0  0  0
    1.4702   -1.7645    1.2585 H   0  0  0  0  0  0  0  0  0  0  0  0
    1.9498   -2.6142   -0.1966 H   0  0  0  0  0  0  0  0  0  0  0  0
   -2.0143    2.2718   -1.7814 H   0  0  0  0  0  0  0  0  0  0  0  0
   -2.3600    2.2274   -0.0475 H   0  0  0  0  0  0  0  0  0  0  0  0
   -3.2368   -0.0130    0.5734 H   0  0  0  0  0  0  0  0  0  0  0  0
    2.4694    2.9758   -0.1756 H   0  0  0  0  0  0  0  0  0  0  0  0
    2.9144    1.9655   -1.5596 H   0  0  0  0  0  0  0  0  0  0  0  0
   -1.3530   -0.8285    1.7867 H   0  0  0  0  0  0  0  0  0  0  0  0
   -1.1950    0.9243    1.7307 H   0  0  0  0  0  0  0  0  0  0  0  0
    0.2071   -0.0815    2.0431 H   0  0  0  0  0  0  0  0  0  0  0  0
    4.1096   -2.8632    0.4163 H   0  0  0  0  0  0  0  0  0  0  0  0
    4.4844   -2.0692   -1.1082 H   0  0  0  0  0  0  0  0  0  0  0  0
    3.3485    0.1620    2.4336 H   0  0  0  0  0  0  0  0  0  0  0  0
    3.3709   -1.6052    2.3867 H   0  0  0  0  0  0  0  0  0  0  0  0
    4.8756   -0.7004    2.4869 H   0  0  0  0  0  0  0  0  0  0  0  0
   -4.2197    1.3015   -1.2896 H   0  0  0  0  0  0  0  0  0  0  0  0
   -3.9024   -0.0089   -2.3911 H   0  0  0  0  0  0  0  0  0  0  0  0
   -2.3645   -2.2277    0.3775 H   0  0  0  0  0  0  0  0  0  0  0  0
   -2.4589   -2.2104   -1.4124 H   0  0  0  0  0  0  0  0  0  0  0  0
   -3.8898   -2.3203   -0.3937 H   0  0  0  0  0  0  0  0  0  0  0  0
    6.5073   -2.9823   -0.2077 H   0  0  0  0  0  0  0  0  0  0  0  0
    6.2848   -2.1930    1.3633 H   0  0  0  0  0  0  0  0  0  0  0  0
    6.7313    1.2833   -0.5421 H   0  0  0  0  0  0  0  0  0  0  0  0
   -5.5182   -1.4633   -1.3013 H   0  0  0  0  0  0  0  0  0  0  0  0
   -6.2124    0.0299   -1.8493 H   0  0  0  0  0  0  0  0  0  0  0  0
   -5.4771   -0.5211    1.0581 H   0  0  0  0  0  0  0  0  0  0  0  0
   -7.8305   -0.7083    1.5533 H   0  0  0  0  0  0  0  0  0  0  0  0
   -5.2723    1.8557    0.4885 H   0  0  0  0  0  0  0  0  0  0  0  0
   -6.8795    1.8903   -0.2126 H   0  0  0  0  0  0  0  0  0  0  0  0
   -9.5870   -0.8881   -0.1640 H   0  0  0  0  0  0  0  0  0  0  0  0
   -8.4361   -0.4831   -1.4403 H   0  0  0  0  0  0  0  0  0  0  0  0
   -8.8596    0.7143   -0.2028 H   0  0  0  0  0  0  0  0  0  0  0  0
   -7.2552   -2.6643   -0.7138 H   0  0  0  0  0  0  0  0  0  0  0  0
   -6.5314   -2.7637    0.9069 H   0  0  0  0  0  0  0  0  0  0  0  0
   -8.2821   -2.8883    0.7001 H   0  0  0  0  0  0  0  0  0  0  0  0
   -7.8601    1.5234    2.0457 H   0  0  0  0  0  0  0  0  0  0  0  0
   -6.7165    2.8651    2.0903 H   0  0  0  0  0  0  0  0  0  0  0  0
   -6.2367    1.2837    2.7277 H   0  0  0  0  0  0  0  0  0  0  0  0
  1 18  2  0  0  0  0
  2 25  2  0  0  0  0
  3  4  1  0  0  0  0
  3  6  1  0  0  0  0
  3  8  1  0  0  0  0
  3 15  1  0  0  0  0
  4  5  1  0  0  0  0
  4  9  1  0  0  0  0
  4 32  1  0  0  0  0
  5  7  1  0  0  0  0
  5 14  1  0  0  0  0
  5 33  1  0  0  0  0
  6 11  1  0  0  0  0
  6 13  1  0  0  0  0
  6 34  1  0  0  0  0
  7 10  1  0  0  0  0
  7 12  1  0  0  0  0
  7 35  1  0  0  0  0
  8 10  1  0  0  0  0
  8 36  1  0  0  0  0
  8 37  1  0  0  0  0
  9 11  1  0  0  0  0
  9 38  1  0  0  0  0
  9 39  1  0  0  0  0
 10 40  1  0  0  0  0
 10 41  1  0  0  0  0
 11 42  1  0  0  0  0
 11 43  1  0  0  0  0
 12 16  1  0  0  0  0
 12 17  1  0  0  0  0
 12 19  1  0  0  0  0
 13 20  1  0  0  0  0
 13 21  1  0  0  0  0
 13 44  1  0  0  0  0
 14 18  1  0  0  0  0
 14 45  1  0  0  0  0
 14 46  1  0  0  0  0
 15 47  1  0  0  0  0
 15 48  1  0  0  0  0
 15 49  1  0  0  0  0
 16 18  1  0  0  0  0
 16 23  2  0  0  0  0
 17 22  1  0  0  0  0
 17 50  1  0  0  0  0
 17 51  1  0  0  0  0
 19 52  1  0  0  0  0
 19 53  1  0  0  0  0
 19 54  1  0  0  0  0
 20 24  1  0  0  0  0
 20 55  1  0  0  0  0
 20 56  1  0  0  0  0
 21 57  1  0  0  0  0
 21 58  1  0  0  0  0
 21 59  1  0  0  0  0
 22 25  1  0  0  0  0
 22 60  1  0  0  0  0
 22 61  1  0  0  0  0
 23 25  1  0  0  0  0
 23 62  1  0  0  0  0
 24 26  1  0  0  0  0
 24 63  1  0  0  0  0
 24 64  1  0  0  0  0
 26 27  1  0  0  0  0
 26 28  1  0  0  0  0
 26 65  1  0  0  0  0
 27 29  1  0  0  0  0
 27 30  1  0  0  0  0
 27 66  1  0  0  0  0
 28 31  1  0  0  0  0
 28 67  1  0  0  0  0
 28 68  1  0  0  0  0
 29 69  1  0  0  0  0
 29 70  1  0  0  0  0
 29 71  1  0  0  0  0
 30 72  1  0  0  0  0
 30 73  1  0  0  0  0
 30 74  1  0  0  0  0
 31 75  1  0  0  0  0
 31 76  1  0  0  0  0
 31 77  1  0  0  0  0
M  END
> <PUBCHEM_COMPOUND_CID>
5490007

> <PUBCHEM_CONFORMER_RMSD>
1

> <PUBCHEM_CONFORMER_DIVERSEORDER>
1
7
8
4
9
3
2
5
6

> <PUBCHEM_MMFF94_PARTIAL_CHARGES>
10
1 -0.57
12 0.14
14 0.06
16 -0.12
18 0.49
2 -0.57
22 0.06
23 -0.14
25 0.49
62 0.15

> <PUBCHEM_EFFECTIVE_ROTOR_COUNT>
7.6

> <PUBCHEM_PHARMACOPHORE_FEATURES>
10
1 1 acceptor
1 2 acceptor
1 21 hydrophobe
1 31 hydrophobe
3 27 29 30 hydrophobe
5 3 4 6 9 11 rings
6 12 16 17 22 23 25 rings
6 13 20 24 26 27 28 hydrophobe
6 3 4 5 7 8 10 rings
6 5 7 12 14 16 18 rings

> <PUBCHEM_HEAVY_ATOM_COUNT>
31

> <PUBCHEM_ATOM_DEF_STEREO_COUNT>
8

> <PUBCHEM_ATOM_UDEF_STEREO_COUNT>
0

> <PUBCHEM_BOND_DEF_STEREO_COUNT>
0

> <PUBCHEM_BOND_UDEF_STEREO_COUNT>
0

> <PUBCHEM_ISOTOPIC_ATOM_COUNT>
0

> <PUBCHEM_COMPONENT_COUNT>
1

> <PUBCHEM_CACTVS_TAUTO_COUNT>
4

> <PUBCHEM_CONFORMER_ID>
0053C55700000001

> <PUBCHEM_MMFF94_ENERGY>
95.623

> <PUBCHEM_FEATURE_SELFOVERLAP>
50.849

> <PUBCHEM_SHAPE_FINGERPRINT>
10076449 9 18186806863962345644
10299344 5 18341895186362142911
10906281 52 18337686272899068895
11456790 92 18059848464011063928
11578080 2 17200774865174737866
11963148 33 18187637003579180475
12166972 35 18411981372973375104
12236239 1 18060699506900372021
12522641 126 17532384242800571741
12596602 18 18413392042898061473
13533116 47 18343578569145965232
13685833 64 18334011687906547591
13782708 43 17168137941083735723
13811026 1 18260266390780552179
14040222 275 18189356631326957700
14251764 18 18343302574584122917
14849402 71 18269839881906534377
14856354 85 17418088845974088333
15131766 46 15049446211990178568
15142383 8 13470687045048396518
15183329 4 18411972568732887023
15352257 5 18113900476938965339
15461852 350 17203599386456672885
15840311 113 18335420218389816853
18608769 82 17894914052785129938
20105231 36 18408610236137156598
21130935 74 18410856581663700779
21150785 3 14634870846578188238
21267235 1 18409730647386128556
21315763 28 18343302583042136553
21781051 124 17823152244428433179
21792934 111 18411688881679596857
221357 26 18408880716703704812
23081809 10 17774994726427681621
23522609 53 18192458375088737853
23559900 14 18336818793196460468
23569943 247 17970058946588249443
2838139 119 10879985866156424747
3004659 81 18260259759667363116
335352 9 18409449202121027662
350125 39 18411980226564889836
4073 2 18042125525723795915
4093350 32 17417813972293877252
4340502 62 16805593798260274336
5104073 3 18336538412782042803
58083652 198 18338504301477586493

> <PUBCHEM_SHAPE_MULTIPOLES>
626.23
23
2.43
1.19
20.89
0.47
-0.45
-6.15
-2.67
-0.9
-0.12
0.98
0.18
-0.81

> <PUBCHEM_SHAPE_SELFOVERLAP>
1303.538

> <PUBCHEM_SHAPE_VOLUME>
356.2

> <PUBCHEM_COORDINATE_TYPE>
2
5
10

$$$$
