130556
  -OEChem-08232003483D

 68 73  0     1  0  0  0  0  0999 V2000
    1.3706    0.6218    1.6695 O   0  0  0  0  0  0  0  0  0  0  0  0
   -1.1312   -0.4323   -0.7957 O   0  0  0  0  0  0  0  0  0  0  0  0
    0.2926    3.3092   -0.6196 O   0  0  0  0  0  0  0  0  0  0  0  0
   -2.7958   -2.7692   -1.0465 O   0  0  0  0  0  0  0  0  0  0  0  0
   -3.2923    3.6607    0.2570 O   0  0  0  0  0  0  0  0  0  0  0  0
   -5.2263    0.8484   -3.0458 O   0  0  0  0  0  0  0  0  0  0  0  0
   -3.4156    1.0850    2.2970 O   0  0  0  0  0  0  0  0  0  0  0  0
   -0.8846   -1.9331    4.9491 O   0  0  0  0  0  0  0  0  0  0  0  0
    4.7019    0.4132   -2.2803 O   0  0  0  0  0  0  0  0  0  0  0  0
    6.4554    2.4148   -1.4767 O   0  0  0  0  0  0  0  0  0  0  0  0
    1.2880   -3.9350    1.7956 O   0  0  0  0  0  0  0  0  0  0  0  0
    3.0487   -5.0783   -0.0263 O   0  0  0  0  0  0  0  0  0  0  0  0
   -1.1181    1.8821    0.7332 C   0  0  1  0  0  0  0  0  0  0  0  0
    0.2407    2.0287    0.0119 C   0  0  2  0  0  0  0  0  0  0  0  0
   -2.2145    1.5891   -0.2862 C   0  0  0  0  0  0  0  0  0  0  0  0
    1.3942    1.8985    1.0168 C   0  0  2  0  0  0  0  0  0  0  0  0
   -1.0476    0.8755    1.8664 C   0  0  0  0  0  0  0  0  0  0  0  0
   -2.1811    0.4144   -1.0420 C   0  0  0  0  0  0  0  0  0  0  0  0
   -3.2001    0.1358   -1.9618 C   0  0  0  0  0  0  0  0  0  0  0  0
   -2.2125   -2.1494   -2.1934 C   0  0  2  0  0  0  0  0  0  0  0  0
   -0.9126   -1.4346   -1.8014 C   0  0  2  0  0  0  0  0  0  0  0  0
   -3.1963   -1.1337   -2.7704 C   0  0  0  0  0  0  0  0  0  0  0  0
    0.1731    0.3095    2.2548 C   0  0  0  0  0  0  0  0  0  0  0  0
   -3.2485    2.5065   -0.4661 C   0  0  0  0  0  0  0  0  0  0  0  0
    2.7489    2.0343    0.3463 C   0  0  0  0  0  0  0  0  0  0  0  0
   -2.2064    0.5160    2.5760 C   0  0  0  0  0  0  0  0  0  0  0  0
   -4.2290    1.0703   -2.1420 C   0  0  0  0  0  0  0  0  0  0  0  0
   -4.2531    2.2495   -1.3963 C   0  0  0  0  0  0  0  0  0  0  0  0
    0.1463   -2.4102   -1.3228 C   0  0  0  0  0  0  0  0  0  0  0  0
    0.2241   -0.6461    3.2744 C   0  0  0  0  0  0  0  0  0  0  0  0
   -2.1522   -0.4241    3.6063 C   0  0  0  0  0  0  0  0  0  0  0  0
    3.1112    1.1538   -0.6704 C   0  0  0  0  0  0  0  0  0  0  0  0
   -0.9382   -1.0119    3.9492 C   0  0  0  0  0  0  0  0  0  0  0  0
    3.6254    3.0386    0.7509 C   0  0  0  0  0  0  0  0  0  0  0  0
    0.2359   -2.7312    0.0308 C   0  0  0  0  0  0  0  0  0  0  0  0
    1.0286   -2.9831   -2.2375 C   0  0  0  0  0  0  0  0  0  0  0  0
    4.3566    1.2781   -1.2859 C   0  0  0  0  0  0  0  0  0  0  0  0
    4.8710    3.1630    0.1354 C   0  0  0  0  0  0  0  0  0  0  0  0
    5.2365    2.2827   -0.8831 C   0  0  0  0  0  0  0  0  0  0  0  0
    1.2100   -3.6273    0.4707 C   0  0  0  0  0  0  0  0  0  0  0  0
    2.0028   -3.8792   -1.7976 C   0  0  0  0  0  0  0  0  0  0  0  0
    2.0934   -4.2014   -0.4435 C   0  0  0  0  0  0  0  0  0  0  0  0
   -1.3172    2.8455    1.2223 H   0  0  0  0  0  0  0  0  0  0  0  0
    0.3687    1.2951   -0.7854 H   0  0  0  0  0  0  0  0  0  0  0  0
    1.3086    2.6811    1.7849 H   0  0  0  0  0  0  0  0  0  0  0  0
   -2.0213   -2.9407   -2.9277 H   0  0  0  0  0  0  0  0  0  0  0  0
   -0.5019   -0.9122   -2.6782 H   0  0  0  0  0  0  0  0  0  0  0  0
   -4.1978   -1.5795   -2.7802 H   0  0  0  0  0  0  0  0  0  0  0  0
   -2.9037   -0.8860   -3.7979 H   0  0  0  0  0  0  0  0  0  0  0  0
   -5.0606    2.9623   -1.5457 H   0  0  0  0  0  0  0  0  0  0  0  0
    0.2562    3.9885    0.0752 H   0  0  0  0  0  0  0  0  0  0  0  0
    1.1747   -1.0956    3.5521 H   0  0  0  0  0  0  0  0  0  0  0  0
   -3.0617   -0.6917    4.1387 H   0  0  0  0  0  0  0  0  0  0  0  0
    2.4364    0.3597   -0.9797 H   0  0  0  0  0  0  0  0  0  0  0  0
    3.3547    3.7319    1.5424 H   0  0  0  0  0  0  0  0  0  0  0  0
   -3.5994   -3.2317   -1.3395 H   0  0  0  0  0  0  0  0  0  0  0  0
   -0.4629   -2.3066    0.7455 H   0  0  0  0  0  0  0  0  0  0  0  0
    0.9669   -2.7412   -3.2951 H   0  0  0  0  0  0  0  0  0  0  0  0
   -4.0798    4.1690   -0.0024 H   0  0  0  0  0  0  0  0  0  0  0  0
   -4.9914    0.1255   -3.6480 H   0  0  0  0  0  0  0  0  0  0  0  0
   -3.2704    2.0195    2.0749 H   0  0  0  0  0  0  0  0  0  0  0  0
    5.5518    3.9478    0.4537 H   0  0  0  0  0  0  0  0  0  0  0  0
    2.6879   -4.3230   -2.5149 H   0  0  0  0  0  0  0  0  0  0  0  0
   -1.7800   -2.0642    5.3056 H   0  0  0  0  0  0  0  0  0  0  0  0
    3.9719   -0.2133   -2.4237 H   0  0  0  0  0  0  0  0  0  0  0  0
    6.5406    1.7246   -2.1572 H   0  0  0  0  0  0  0  0  0  0  0  0
    0.5888   -3.4577    2.2742 H   0  0  0  0  0  0  0  0  0  0  0  0
    2.9666   -5.1843    0.9374 H   0  0  0  0  0  0  0  0  0  0  0  0
  1 16  1  0  0  0  0
  1 23  1  0  0  0  0
  2 18  1  0  0  0  0
  2 21  1  0  0  0  0
  3 14  1  0  0  0  0
  3 51  1  0  0  0  0
  4 20  1  0  0  0  0
  4 56  1  0  0  0  0
  5 24  1  0  0  0  0
  5 59  1  0  0  0  0
  6 27  1  0  0  0  0
  6 60  1  0  0  0  0
  7 26  1  0  0  0  0
  7 61  1  0  0  0  0
  8 33  1  0  0  0  0
  8 64  1  0  0  0  0
  9 37  1  0  0  0  0
  9 65  1  0  0  0  0
 10 39  1  0  0  0  0
 10 66  1  0  0  0  0
 11 40  1  0  0  0  0
 11 67  1  0  0  0  0
 12 42  1  0  0  0  0
 12 68  1  0  0  0  0
 13 14  1  0  0  0  0
 13 15  1  0  0  0  0
 13 17  1  0  0  0  0
 13 43  1  0  0  0  0
 14 16  1  0  0  0  0
 14 44  1  0  0  0  0
 15 18  1  0  0  0  0
 15 24  2  0  0  0  0
 16 25  1  0  0  0  0
 16 45  1  0  0  0  0
 17 23  1  0  0  0  0
 17 26  2  0  0  0  0
 18 19  2  0  0  0  0
 19 22  1  0  0  0  0
 19 27  1  0  0  0  0
 20 21  1  0  0  0  0
 20 22  1  0  0  0  0
 20 46  1  0  0  0  0
 21 29  1  0  0  0  0
 21 47  1  0  0  0  0
 22 48  1  0  0  0  0
 22 49  1  0  0  0  0
 23 30  2  0  0  0  0
 24 28  1  0  0  0  0
 25 32  2  0  0  0  0
 25 34  1  0  0  0  0
 26 31  1  0  0  0  0
 27 28  2  0  0  0  0
 28 50  1  0  0  0  0
 29 35  2  0  0  0  0
 29 36  1  0  0  0  0
 30 33  1  0  0  0  0
 30 52  1  0  0  0  0
 31 33  2  0  0  0  0
 31 53  1  0  0  0  0
 32 37  1  0  0  0  0
 32 54  1  0  0  0  0
 34 38  2  0  0  0  0
 34 55  1  0  0  0  0
 35 40  1  0  0  0  0
 35 57  1  0  0  0  0
 36 41  2  0  0  0  0
 36 58  1  0  0  0  0
 37 39  2  0  0  0  0
 38 39  1  0  0  0  0
 38 62  1  0  0  0  0
 40 42  2  0  0  0  0
 41 42  1  0  0  0  0
 41 63  1  0  0  0  0
M  END
> <PUBCHEM_COMPOUND_CID>
130556

> <PUBCHEM_CONFORMER_RMSD>
1

> <PUBCHEM_CONFORMER_DIVERSEORDER>
9
159
53
23
296
289
112
228
267
148
247
52
178
81
258
24
209
44
305
239
277
237
183
79
46
334
252
272
124
158
85
276
259
298
11
167
123
88
179
106
144
293
302
329
101
15
90
187
163
288
215
84
286
292
201
299
222
330
264
64
169
152
161
186
51
300
294
165
63
223
316
197
319
130
96
260
254
18
257
180
211
322
275
151
185
147
184
202
283
3
115
20
135
327
230
313
212
170
132
30
182
191
166
125
6
195
57
32
77
225
181
194
26
111
162
315
243
50
113
308
120
271
42
22
208
214
251
246
47
156
133
261
126
31
270
205
110
37
174
55
68
136
199
119
241
54
229
321
145
204
59
13
240
28
188
190
266
128
255
141
14
2
58
134
234
306
265
160
235
27
17
280
218
177
89
244
175
150
137
155
107
72
274
1
60
74
100
82
309
118
278
226
70
262
131
253
12
232
287
73
108
61
203
200
221
291
83
268
10
297
45
29
117
39
213
56
323
139
98
76
78
154
301
49
69
335
236
168
279
311
250
67
138
216
116
7
210
40
304
193
4
25
97
48
104
75
242
102
21
269
333
231
196
5
303
331
87
149
281
66
326
157
38
105
307
173
227
80
19
224
282
129
114
310
109
325
324
95
284
146
217
263
189
220
238
94
249
103
332
248
207
245
233
285
16
8
93
86
256
164
290
317
91
65
121
34
92
328
172
312
295
41
314
219
320
99
33
206
171
198
127
71
176
140
318
142
36
153
192
273
35
122
143
62
43

> <PUBCHEM_MMFF94_PARTIAL_CHARGES>
61
1 -0.36
10 -0.53
11 -0.53
12 -0.53
13 0.29
14 0.28
15 -0.14
16 0.42
17 -0.14
18 0.08
19 -0.14
2 -0.36
20 0.28
21 0.42
22 0.14
23 0.08
24 0.08
25 -0.14
26 0.08
27 0.08
28 -0.15
29 -0.14
3 -0.68
30 -0.15
31 -0.15
32 -0.15
33 0.08
34 -0.15
35 -0.15
36 -0.15
37 0.08
38 -0.15
39 0.08
4 -0.68
40 0.08
41 -0.15
42 0.08
5 -0.53
50 0.15
51 0.4
52 0.15
53 0.15
54 0.15
55 0.15
56 0.4
57 0.15
58 0.15
59 0.45
6 -0.53
60 0.45
61 0.45
62 0.15
63 0.15
64 0.45
65 0.45
66 0.45
67 0.45
68 0.45
7 -0.53
8 -0.53
9 -0.53

> <PUBCHEM_EFFECTIVE_ROTOR_COUNT>
4.6

> <PUBCHEM_PHARMACOPHORE_FEATURES>
20
1 1 acceptor
1 10 donor
1 11 donor
1 12 donor
1 2 acceptor
1 3 acceptor
1 3 donor
1 4 acceptor
1 4 donor
1 5 donor
1 6 donor
1 7 donor
1 8 donor
1 9 donor
6 1 13 14 16 17 23 rings
6 15 18 19 24 27 28 rings
6 17 23 26 30 31 33 rings
6 2 18 19 20 21 22 rings
6 25 32 34 37 38 39 rings
6 29 35 36 40 41 42 rings

> <PUBCHEM_HEAVY_ATOM_COUNT>
42

> <PUBCHEM_ATOM_DEF_STEREO_COUNT>
0

> <PUBCHEM_ATOM_UDEF_STEREO_COUNT>
5

> <PUBCHEM_BOND_DEF_STEREO_COUNT>
0

> <PUBCHEM_BOND_UDEF_STEREO_COUNT>
0

> <PUBCHEM_ISOTOPIC_ATOM_COUNT>
0

> <PUBCHEM_COMPONENT_COUNT>
1

> <PUBCHEM_CACTVS_TAUTO_COUNT>
986

> <PUBCHEM_CONFORMER_ID>
0001FDFC00000009

> <PUBCHEM_MMFF94_ENERGY>
133.6067

> <PUBCHEM_FEATURE_SELFOVERLAP>
101.582

> <PUBCHEM_SHAPE_FINGERPRINT>
10032420 55 17256592491659788134
11007060 377 18129387150352150220
11093857 51 17841110507673048798
11285246 1 17702662310059252640
11578080 2 17318776449399093381
13383668 262 18119499233424692431
133893 2 18198064681318523219
13642711 20 17459182984717492298
15444296 8 16025848498705492418
15484559 13 17897137235142200573
18603816 31 16842796840287745476
20642791 178 17770494232309975517
21133410 230 17972338440425093326
23419403 2 17828517715533086177
244849 19 17898032165125288985
27425 322 17313371332110494069
3027735 51 18129949012866111486
35225 105 16121116031395817523
469060 322 18121523480879196127
484985 159 16772417169069532892
50150288 127 15407281171543044442
5080951 261 17978228585040470656
5265222 85 17194828666887966514

> <PUBCHEM_SHAPE_MULTIPOLES>
793.91
8.53
5.73
4.12
7.58
6.22
-5.14
-8.31
7.74
4.48
1.16
-3.41
1.52
-0.62

> <PUBCHEM_SHAPE_SELFOVERLAP>
1787.841

> <PUBCHEM_SHAPE_VOLUME>
412.3

> <PUBCHEM_COORDINATE_TYPE>
2
5
10

$$$$
