44521323
  -OEChem-08232003503D

 54 56  0     1  0  0  0  0  0999 V2000
    1.9540   -0.4265    0.2966 O   0  0  0  0  0  0  0  0  0  0  0  0
    3.7726   -3.5452   -0.3196 O   0  0  0  0  0  0  0  0  0  0  0  0
    5.8548   -1.7000    0.4649 O   0  0  0  0  0  0  0  0  0  0  0  0
    2.6082    1.8131    0.2893 O   0  0  0  0  0  0  0  0  0  0  0  0
    5.2208    1.0246   -0.4597 O   0  0  0  0  0  0  0  0  0  0  0  0
   -0.1951   -2.0881   -0.1224 O   0  0  0  0  0  0  0  0  0  0  0  0
    2.1902    3.3269   -2.0079 O   0  0  0  0  0  0  0  0  0  0  0  0
   -1.3521   -3.7669    0.9466 O   0  0  0  0  0  0  0  0  0  0  0  0
   -1.9131    1.1560    2.1667 O   0  0  0  0  0  0  0  0  0  0  0  0
   -3.0083    3.1254    1.6965 O   0  0  0  0  0  0  0  0  0  0  0  0
   -5.9449   -0.2471   -1.7589 O   0  0  0  0  0  0  0  0  0  0  0  0
    3.5378   -2.2609    0.2518 C   0  0  1  0  0  0  0  0  0  0  0  0
    4.6464   -1.3029   -0.1850 C   0  0  1  0  0  0  0  0  0  0  0  0
    2.1682   -1.7487   -0.2002 C   0  0  1  0  0  0  0  0  0  0  0  0
    4.3135    0.1395    0.1966 C   0  0  2  0  0  0  0  0  0  0  0  0
    2.8920    0.5122   -0.2246 C   0  0  1  0  0  0  0  0  0  0  0  0
    1.0360   -2.6262    0.3242 C   0  0  0  0  0  0  0  0  0  0  0  0
    1.3717    2.3263    0.0075 C   0  0  0  0  0  0  0  0  0  0  0  0
   -1.3207   -2.7572    0.2604 C   0  0  0  0  0  0  0  0  0  0  0  0
    1.1645    3.0849   -1.1446 C   0  0  0  0  0  0  0  0  0  0  0  0
    0.3135    2.0861    0.8839 C   0  0  0  0  0  0  0  0  0  0  0  0
   -0.9519    2.6043    0.6080 C   0  0  0  0  0  0  0  0  0  0  0  0
   -0.1008    3.6033   -1.4204 C   0  0  0  0  0  0  0  0  0  0  0  0
   -2.5390   -2.0950   -0.2703 C   0  0  0  0  0  0  0  0  0  0  0  0
   -1.1590    3.3629   -0.5441 C   0  0  0  0  0  0  0  0  0  0  0  0
   -3.7987   -2.6252    0.0090 C   0  0  0  0  0  0  0  0  0  0  0  0
   -2.4241   -0.9438   -1.0495 C   0  0  0  0  0  0  0  0  0  0  0  0
   -2.0558    2.3540    1.5213 C   0  0  0  0  0  0  0  0  0  0  0  0
   -4.9431   -2.0046   -0.4913 C   0  0  0  0  0  0  0  0  0  0  0  0
   -3.5686   -0.3231   -1.5499 C   0  0  0  0  0  0  0  0  0  0  0  0
   -4.8281   -0.8536   -1.2708 C   0  0  0  0  0  0  0  0  0  0  0  0
   -2.9409    0.7955    3.0958 C   0  0  0  0  0  0  0  0  0  0  0  0
    3.5613   -2.3787    1.3420 H   0  0  0  0  0  0  0  0  0  0  0  0
    4.8360   -1.3896   -1.2613 H   0  0  0  0  0  0  0  0  0  0  0  0
    2.0980   -1.7243   -1.2963 H   0  0  0  0  0  0  0  0  0  0  0  0
    4.4465    0.2923    1.2742 H   0  0  0  0  0  0  0  0  0  0  0  0
    2.8114    0.5487   -1.3199 H   0  0  0  0  0  0  0  0  0  0  0  0
    1.0404   -2.6269    1.4211 H   0  0  0  0  0  0  0  0  0  0  0  0
    1.1423   -3.6539   -0.0410 H   0  0  0  0  0  0  0  0  0  0  0  0
    3.7397   -3.4541   -1.2872 H   0  0  0  0  0  0  0  0  0  0  0  0
    5.7235   -1.6171    1.4248 H   0  0  0  0  0  0  0  0  0  0  0  0
    5.1164    0.9063   -1.4192 H   0  0  0  0  0  0  0  0  0  0  0  0
    0.4997    1.5068    1.7851 H   0  0  0  0  0  0  0  0  0  0  0  0
   -0.2761    4.1951   -2.3148 H   0  0  0  0  0  0  0  0  0  0  0  0
   -2.1396    3.7707   -0.7757 H   0  0  0  0  0  0  0  0  0  0  0  0
    1.8613    3.8665   -2.7472 H   0  0  0  0  0  0  0  0  0  0  0  0
   -3.9096   -3.5210    0.6142 H   0  0  0  0  0  0  0  0  0  0  0  0
   -1.4637   -0.4963   -1.2895 H   0  0  0  0  0  0  0  0  0  0  0  0
   -5.9187   -2.4273   -0.2666 H   0  0  0  0  0  0  0  0  0  0  0  0
   -3.4729    0.5745   -2.1550 H   0  0  0  0  0  0  0  0  0  0  0  0
   -2.9994    1.5349    3.8998 H   0  0  0  0  0  0  0  0  0  0  0  0
   -3.9012    0.7083    2.5789 H   0  0  0  0  0  0  0  0  0  0  0  0
   -2.6840   -0.1756    3.5269 H   0  0  0  0  0  0  0  0  0  0  0  0
   -6.7271   -0.7471   -1.4685 H   0  0  0  0  0  0  0  0  0  0  0  0
  1 14  1  0  0  0  0
  1 16  1  0  0  0  0
  2 12  1  0  0  0  0
  2 40  1  0  0  0  0
  3 13  1  0  0  0  0
  3 41  1  0  0  0  0
  4 16  1  0  0  0  0
  4 18  1  0  0  0  0
  5 15  1  0  0  0  0
  5 42  1  0  0  0  0
  6 17  1  0  0  0  0
  6 19  1  0  0  0  0
  7 20  1  0  0  0  0
  7 46  1  0  0  0  0
  8 19  2  0  0  0  0
  9 28  1  0  0  0  0
  9 32  1  0  0  0  0
 10 28  2  0  0  0  0
 11 31  1  0  0  0  0
 11 54  1  0  0  0  0
 12 13  1  0  0  0  0
 12 14  1  0  0  0  0
 12 33  1  0  0  0  0
 13 15  1  0  0  0  0
 13 34  1  0  0  0  0
 14 17  1  0  0  0  0
 14 35  1  0  0  0  0
 15 16  1  0  0  0  0
 15 36  1  0  0  0  0
 16 37  1  0  0  0  0
 17 38  1  0  0  0  0
 17 39  1  0  0  0  0
 18 20  2  0  0  0  0
 18 21  1  0  0  0  0
 19 24  1  0  0  0  0
 20 23  1  0  0  0  0
 21 22  2  0  0  0  0
 21 43  1  0  0  0  0
 22 25  1  0  0  0  0
 22 28  1  0  0  0  0
 23 25  2  0  0  0  0
 23 44  1  0  0  0  0
 24 26  2  0  0  0  0
 24 27  1  0  0  0  0
 25 45  1  0  0  0  0
 26 29  1  0  0  0  0
 26 47  1  0  0  0  0
 27 30  2  0  0  0  0
 27 48  1  0  0  0  0
 29 31  2  0  0  0  0
 29 49  1  0  0  0  0
 30 31  1  0  0  0  0
 30 50  1  0  0  0  0
 32 51  1  0  0  0  0
 32 52  1  0  0  0  0
 32 53  1  0  0  0  0
M  END
> <PUBCHEM_COMPOUND_CID>
44521323

> <PUBCHEM_CONFORMER_RMSD>
1

> <PUBCHEM_CONFORMER_DIVERSEORDER>
1
94
172
157
119
86
160
96
140
80
38
138
43
102
98
144
167
15
78
127
103
89
72
161
99
69
39
146
132
32
148
118
55
169
115
13
101
153
155
100
129
11
164
105
123
170
97
163
42
27
31
113
28
18
64
162
51
158
143
165
176
17
82
88
135
25
40
130
116
159
106
47
37
137
174
95
168
110
71
120
6
114
92
147
54
53
60
122
154
30
10
45
177
87
141
121
74
81
84
134
117
150
58
133
77
136
48
90
175
41
44
65
83
128
126
4
20
124
104
21
75
56
34
171
178
111
49
19
173
66
9
62
2
93
36
156
35
112
61
33
46
68
145
12
139
151
22
76
7
16
152
73
70
142
52
8
50
166
179
109
24
63
29
5
131
85
67
91
107
57
59
79
23
125
3
26
108
149
14

> <PUBCHEM_MMFF94_PARTIAL_CHARGES>
44
1 -0.56
10 -0.57
11 -0.53
12 0.28
13 0.28
14 0.28
15 0.28
16 0.56
17 0.28
18 0.08
19 0.63
2 -0.68
20 0.08
21 -0.15
22 0.09
23 -0.15
24 0.09
25 -0.15
26 -0.15
27 -0.15
28 0.63
29 -0.15
3 -0.68
30 -0.15
31 0.08
32 0.28
4 -0.36
40 0.4
41 0.4
42 0.4
43 0.15
44 0.15
45 0.15
46 0.45
47 0.15
48 0.15
49 0.15
5 -0.68
50 0.15
54 0.45
6 -0.43
7 -0.53
8 -0.57
9 -0.43

> <PUBCHEM_EFFECTIVE_ROTOR_COUNT>
9.2

> <PUBCHEM_PHARMACOPHORE_FEATURES>
15
1 1 acceptor
1 10 acceptor
1 11 donor
1 2 acceptor
1 2 donor
1 3 acceptor
1 3 donor
1 4 acceptor
1 5 acceptor
1 5 donor
1 7 donor
1 8 acceptor
6 1 12 13 14 15 16 rings
6 18 20 21 22 23 25 rings
6 24 26 27 29 30 31 rings

> <PUBCHEM_HEAVY_ATOM_COUNT>
32

> <PUBCHEM_ATOM_DEF_STEREO_COUNT>
5

> <PUBCHEM_ATOM_UDEF_STEREO_COUNT>
0

> <PUBCHEM_BOND_DEF_STEREO_COUNT>
0

> <PUBCHEM_BOND_UDEF_STEREO_COUNT>
0

> <PUBCHEM_ISOTOPIC_ATOM_COUNT>
0

> <PUBCHEM_COMPONENT_COUNT>
1

> <PUBCHEM_CACTVS_TAUTO_COUNT>
20

> <PUBCHEM_CONFORMER_ID>
02A7576B00000001

> <PUBCHEM_MMFF94_ENERGY>
100.7988

> <PUBCHEM_FEATURE_SELFOVERLAP>
76.182

> <PUBCHEM_SHAPE_FINGERPRINT>
10190206 1 18119836805195862636
10483366 6 18119510078200919949
1100329 8 17981041908192281178
11513181 2 17774448178611914598
12156800 1 17615361971724450473
12166972 35 18337949116613792975
12788726 201 18131075947638441801
13402501 40 18262226824228833303
13560911 43 18114454664715913411
1361 2 17185585820369661821
140371 6 18410298051110372398
14068700 675 18059280041784224077
14251757 17 18115849906801846957
14464042 87 18202565090228395499
14931854 50 18410566280159704927
150020 26 17905042904313501291
151778 21 17685496842248281709
15210252 30 18114739455913623020
15297060 5 17345191100319419107
15420108 30 17552649045702459433
17093844 170 18266726060274984232
17921350 177 16811179343495066413
20775438 99 16760798784492630087
23559900 14 18264756843713580479
24893992 56 18335125507225798127
27425 322 15938357395577654061
338550 245 18339372881177028241
46194498 28 17605827251859956901
463206 1 18339928117168803809
469060 322 18262796242265501128
46939830 39 17821727264779597708
6438718 38 17917997131215904414

> <PUBCHEM_SHAPE_MULTIPOLES>
593.98
10.11
5.49
1.77
1.77
1.4
0.89
-6.73
-2.37
0.39
-0.26
-2.26
1.46
-1.92

> <PUBCHEM_SHAPE_SELFOVERLAP>
1271.502

> <PUBCHEM_SHAPE_VOLUME>
325.2

> <PUBCHEM_COORDINATE_TYPE>
2
5
10

$$$$
