189168
  -OEChem-08232010163D

 36 39  0     0  0  0  0  0  0999 V2000
    1.5999   -2.5052   -0.0161 O   0  0  0  0  0  0  0  0  0  0  0  0
   -0.7664   -3.7048   -0.0895 O   0  0  0  0  0  0  0  0  0  0  0  0
   -4.1986    0.0083   -0.0994 O   0  0  0  0  0  0  0  0  0  0  0  0
   -4.1042    2.6563   -0.0512 O   0  0  0  0  0  0  0  0  0  0  0  0
   -1.7926    2.6016   -0.0016 N   0  0  0  0  0  0  0  0  0  0  0  0
   -0.6181    0.4619   -0.0123 C   0  0  0  0  0  0  0  0  0  0  0  0
    0.6058   -0.2592    0.0020 C   0  0  0  0  0  0  0  0  0  0  0  0
   -0.5974    1.8607    0.0122 C   0  0  0  0  0  0  0  0  0  0  0  0
    1.8512    0.4623    0.0418 C   0  0  0  0  0  0  0  0  0  0  0  0
   -1.8416   -0.2299   -0.0514 C   0  0  0  0  0  0  0  0  0  0  0  0
    1.8293    1.8803    0.0657 C   0  0  0  0  0  0  0  0  0  0  0  0
    0.5156   -1.6735   -0.0251 C   0  0  0  0  0  0  0  0  0  0  0  0
    0.6085    2.5596    0.0505 C   0  0  0  0  0  0  0  0  0  0  0  0
   -1.8939   -1.6226   -0.0773 C   0  0  0  0  0  0  0  0  0  0  0  0
   -0.7101   -2.3426   -0.0641 C   0  0  0  0  0  0  0  0  0  0  0  0
   -3.0988    0.5392   -0.0657 C   0  0  0  0  0  0  0  0  0  0  0  0
    3.1288   -0.1531    0.0590 C   0  0  0  0  0  0  0  0  0  0  0  0
   -3.0470    2.0406   -0.0393 C   0  0  0  0  0  0  0  0  0  0  0  0
    3.0275    2.6142    0.1045 C   0  0  0  0  0  0  0  0  0  0  0  0
    4.3128    0.5883    0.0975 C   0  0  0  0  0  0  0  0  0  0  0  0
    4.2621    1.9729    0.1203 C   0  0  0  0  0  0  0  0  0  0  0  0
    1.7484   -3.3815   -1.1291 C   0  0  0  0  0  0  0  0  0  0  0  0
   -0.8214   -4.3735    1.1684 C   0  0  0  0  0  0  0  0  0  0  0  0
    0.5936    3.6489    0.0689 H   0  0  0  0  0  0  0  0  0  0  0  0
   -2.8436   -2.1496   -0.1086 H   0  0  0  0  0  0  0  0  0  0  0  0
   -1.7220    3.6152    0.0175 H   0  0  0  0  0  0  0  0  0  0  0  0
    3.2852   -1.2215    0.0524 H   0  0  0  0  0  0  0  0  0  0  0  0
    3.0092    3.7025    0.1229 H   0  0  0  0  0  0  0  0  0  0  0  0
    5.2721    0.0789    0.1114 H   0  0  0  0  0  0  0  0  0  0  0  0
    5.1787    2.5539    0.1506 H   0  0  0  0  0  0  0  0  0  0  0  0
    1.1478   -3.0827   -1.9959 H   0  0  0  0  0  0  0  0  0  0  0  0
    1.5135   -4.4079   -0.8334 H   0  0  0  0  0  0  0  0  0  0  0  0
    2.8000   -3.3604   -1.4322 H   0  0  0  0  0  0  0  0  0  0  0  0
    0.0550   -4.1296    1.7771 H   0  0  0  0  0  0  0  0  0  0  0  0
   -0.8286   -5.4511    0.9833 H   0  0  0  0  0  0  0  0  0  0  0  0
   -1.7370   -4.1046    1.7046 H   0  0  0  0  0  0  0  0  0  0  0  0
  1 12  1  0  0  0  0
  1 22  1  0  0  0  0
  2 15  1  0  0  0  0
  2 23  1  0  0  0  0
  3 16  2  0  0  0  0
  4 18  2  0  0  0  0
  5  8  1  0  0  0  0
  5 18  1  0  0  0  0
  5 26  1  0  0  0  0
  6  7  2  0  0  0  0
  6  8  1  0  0  0  0
  6 10  1  0  0  0  0
  7  9  1  0  0  0  0
  7 12  1  0  0  0  0
  8 13  2  0  0  0  0
  9 11  1  0  0  0  0
  9 17  2  0  0  0  0
 10 14  2  0  0  0  0
 10 16  1  0  0  0  0
 11 13  1  0  0  0  0
 11 19  2  0  0  0  0
 12 15  2  0  0  0  0
 13 24  1  0  0  0  0
 14 15  1  0  0  0  0
 14 25  1  0  0  0  0
 16 18  1  0  0  0  0
 17 20  1  0  0  0  0
 17 27  1  0  0  0  0
 19 21  1  0  0  0  0
 19 28  1  0  0  0  0
 20 21  2  0  0  0  0
 20 29  1  0  0  0  0
 21 30  1  0  0  0  0
 22 31  1  0  0  0  0
 22 32  1  0  0  0  0
 22 33  1  0  0  0  0
 23 34  1  0  0  0  0
 23 35  1  0  0  0  0
 23 36  1  0  0  0  0
M  END
> <PUBCHEM_COMPOUND_CID>
189168

> <PUBCHEM_CONFORMER_RMSD>
0.6

> <PUBCHEM_CONFORMER_DIVERSEORDER>
2
1

> <PUBCHEM_MMFF94_PARTIAL_CHARGES>
26
1 -0.36
10 0.09
12 0.08
13 -0.15
14 -0.15
15 0.08
16 0.48
17 -0.15
18 0.63
19 -0.15
2 -0.36
20 -0.15
21 -0.15
22 0.28
23 0.28
24 0.15
25 0.15
26 0.37
27 0.15
28 0.15
29 0.15
3 -0.57
30 0.15
4 -0.57
5 -0.55
8 0.12

> <PUBCHEM_EFFECTIVE_ROTOR_COUNT>
2.2

> <PUBCHEM_PHARMACOPHORE_FEATURES>
9
1 1 acceptor
1 2 acceptor
1 3 acceptor
1 4 acceptor
1 5 donor
6 5 6 8 10 16 18 rings
6 6 7 10 12 14 15 rings
6 6 7 8 9 11 13 rings
6 9 11 17 19 20 21 rings

> <PUBCHEM_HEAVY_ATOM_COUNT>
23

> <PUBCHEM_ATOM_DEF_STEREO_COUNT>
0

> <PUBCHEM_ATOM_UDEF_STEREO_COUNT>
0

> <PUBCHEM_BOND_DEF_STEREO_COUNT>
0

> <PUBCHEM_BOND_UDEF_STEREO_COUNT>
0

> <PUBCHEM_ISOTOPIC_ATOM_COUNT>
0

> <PUBCHEM_COMPONENT_COUNT>
1

> <PUBCHEM_CACTVS_TAUTO_COUNT>
2

> <PUBCHEM_CONFORMER_ID>
0002E2F000000002

> <PUBCHEM_MMFF94_ENERGY>
100.8431

> <PUBCHEM_FEATURE_SELFOVERLAP>
45.787

> <PUBCHEM_SHAPE_FINGERPRINT>
10319926 262 17982991631068936544
10411042 1 17401486443258969338
10616163 171 18194403527200653916
10967382 1 18411418405960903516
1100329 8 18193554467589866234
11370993 70 18411412916919073556
11680986 33 18266188222979310409
12173636 292 18339918341591032292
12553582 1 16970267925635873086
13140716 1 17905896125336616547
13583140 156 17023169570070024497
138480 1 17762336911923360458
14790565 3 18410865347191402304
15006816 218 18340769230573200700
15042514 8 18048036556011064171
15196674 1 18411135822766962696
16087824 20 17978229693168737343
16945 1 18411142458448665396
19591789 44 18410575071788752536
19930381 70 18194401091373837883
20028762 73 18057605580566049431
20510252 161 18199472249460151216
20642791 35 17765438638546677270
20739085 24 18048060491869566785
20905425 154 18054792788844528604
21267235 1 18410300236984754608
2334 1 17834958950626638758
23366157 5 18043536010242480534
23419403 2 17540020170587240848
23558518 356 18044374066084376280
23559900 14 18271246119066443356
238 59 17684604854497224525
2748010 2 18193842543825153111
3091708 16 9265871996821884755
335352 9 18339078182006257588
350125 39 18265899042984257980
352729 6 18267306619340715204
5104073 3 18410291393547204121
54173680 148 18121217855174733824
58807428 26 18339078181489422961
6138700 20 18196094340241085814
7364860 26 18124876755025694460
9709674 26 18270403931302180164

> <PUBCHEM_SHAPE_MULTIPOLES>
444.87
6.34
4.99
0.72
3.03
4.1
-0.01
-4.3
-0.19
-2.71
-0.2
0.01
0.47
0.67

> <PUBCHEM_SHAPE_SELFOVERLAP>
1013.075

> <PUBCHEM_SHAPE_VOLUME>
232.3

> <PUBCHEM_COORDINATE_TYPE>
2
5
10

$$$$
