92043363
  -OEChem-08232004333D

 79 82  0     1  0  0  0  0  0999 V2000
    4.5904    2.0370   -1.7507 O   0  0  0  0  0  0  0  0  0  0  0  0
    6.9019   -2.4157   -0.7467 O   0  0  0  0  0  0  0  0  0  0  0  0
   -0.7526    0.9897    0.8803 C   0  0  1  0  0  0  0  0  0  0  0  0
    0.0332    1.1862   -0.4337 C   0  0  2  0  0  0  0  0  0  0  0  0
    1.5519    1.1443   -0.2352 C   0  0  1  0  0  0  0  0  0  0  0  0
    1.9403   -0.2458    0.3702 C   0  0  1  0  0  0  0  0  0  0  0  0
   -2.1925    1.1454    0.3327 C   0  0  2  0  0  0  0  0  0  0  0  0
    3.4993   -0.3832    0.5747 C   0  0  2  0  0  0  0  0  0  0  0  0
   -0.4172   -0.4069    1.4217 C   0  0  0  0  0  0  0  0  0  0  0  0
    1.0976   -0.5885    1.6280 C   0  0  0  0  0  0  0  0  0  0  0  0
   -0.5989    2.4318   -1.0479 C   0  0  0  0  0  0  0  0  0  0  0  0
   -2.0833    2.3349   -0.6497 C   0  0  0  0  0  0  0  0  0  0  0  0
    4.1798   -0.1566   -0.8079 C   0  0  1  0  0  0  0  0  0  0  0  0
    2.2893    1.4078   -1.5515 C   0  0  0  0  0  0  0  0  0  0  0  0
   -3.2978    1.3281    1.3628 C   0  0  1  0  0  0  0  0  0  0  0  0
   -0.4504    2.0549    1.9642 C   0  0  0  0  0  0  0  0  0  0  0  0
    3.8607   -1.8255    1.0314 C   0  0  0  0  0  0  0  0  0  0  0  0
    3.7758    1.1938   -1.3814 C   0  0  0  0  0  0  0  0  0  0  0  0
    4.0151    0.6233    1.6334 C   0  0  0  0  0  0  0  0  0  0  0  0
    5.6948   -0.3483   -0.7840 C   0  0  0  0  0  0  0  0  0  0  0  0
    5.3606   -2.1152    1.0606 C   0  0  0  0  0  0  0  0  0  0  0  0
   -4.6954    1.4526    0.7209 C   0  0  0  0  0  0  0  0  0  0  0  0
   -3.2976    0.1527    2.3484 C   0  0  0  0  0  0  0  0  0  0  0  0
    6.0347   -1.7118   -0.2298 C   0  0  0  0  0  0  0  0  0  0  0  0
   -4.9362    0.5909   -0.5296 C   0  0  0  0  0  0  0  0  0  0  0  0
   -4.8894   -0.9457   -0.3248 C   0  0  2  0  0  0  0  0  0  0  0  0
   -5.0309   -1.7296   -1.6684 C   0  0  0  0  0  0  0  0  0  0  0  0
   -5.9217   -1.3826    0.7442 C   0  0  0  0  0  0  0  0  0  0  0  0
   -3.9484   -1.3414   -2.6837 C   0  0  0  0  0  0  0  0  0  0  0  0
   -6.4118   -1.6063   -2.3182 C   0  0  0  0  0  0  0  0  0  0  0  0
   -5.9013   -2.8701    1.0699 C   0  0  0  0  0  0  0  0  0  0  0  0
   -0.2149    0.3544   -1.1148 H   0  0  0  0  0  0  0  0  0  0  0  0
    1.8427    1.9367    0.4621 H   0  0  0  0  0  0  0  0  0  0  0  0
    1.6581   -1.0006   -0.3814 H   0  0  0  0  0  0  0  0  0  0  0  0
   -2.3859    0.2505   -0.2690 H   0  0  0  0  0  0  0  0  0  0  0  0
   -0.7713   -1.1792    0.7267 H   0  0  0  0  0  0  0  0  0  0  0  0
   -0.8828   -0.6138    2.3856 H   0  0  0  0  0  0  0  0  0  0  0  0
    1.4168    0.0202    2.4793 H   0  0  0  0  0  0  0  0  0  0  0  0
    1.2677   -1.6323    1.9150 H   0  0  0  0  0  0  0  0  0  0  0  0
   -0.4796    2.4555   -2.1360 H   0  0  0  0  0  0  0  0  0  0  0  0
   -0.1541    3.3487   -0.6455 H   0  0  0  0  0  0  0  0  0  0  0  0
   -2.3997    3.2782   -0.1897 H   0  0  0  0  0  0  0  0  0  0  0  0
   -2.6922    2.1928   -1.5458 H   0  0  0  0  0  0  0  0  0  0  0  0
    3.7814   -0.9011   -1.5146 H   0  0  0  0  0  0  0  0  0  0  0  0
    2.1223    2.4386   -1.8832 H   0  0  0  0  0  0  0  0  0  0  0  0
    1.9419    0.7394   -2.3475 H   0  0  0  0  0  0  0  0  0  0  0  0
   -3.1399    2.2445    1.9453 H   0  0  0  0  0  0  0  0  0  0  0  0
   -0.7419    3.0624    1.6509 H   0  0  0  0  0  0  0  0  0  0  0  0
    0.6113    2.1033    2.2205 H   0  0  0  0  0  0  0  0  0  0  0  0
   -0.9780    1.8434    2.8987 H   0  0  0  0  0  0  0  0  0  0  0  0
    3.3839   -2.5449    0.3519 H   0  0  0  0  0  0  0  0  0  0  0  0
    3.4592   -2.0262    2.0314 H   0  0  0  0  0  0  0  0  0  0  0  0
    3.7975    1.6603    1.3637 H   0  0  0  0  0  0  0  0  0  0  0  0
    5.0983    0.5628    1.7725 H   0  0  0  0  0  0  0  0  0  0  0  0
    3.5686    0.4343    2.6145 H   0  0  0  0  0  0  0  0  0  0  0  0
    6.2051    0.4137   -0.1864 H   0  0  0  0  0  0  0  0  0  0  0  0
    6.0939   -0.2796   -1.8031 H   0  0  0  0  0  0  0  0  0  0  0  0
    5.5179   -3.1880    1.2183 H   0  0  0  0  0  0  0  0  0  0  0  0
    5.8526   -1.5864    1.8830 H   0  0  0  0  0  0  0  0  0  0  0  0
   -5.4884    1.3056    1.4622 H   0  0  0  0  0  0  0  0  0  0  0  0
   -4.8124    2.4972    0.3992 H   0  0  0  0  0  0  0  0  0  0  0  0
   -3.1321   -0.8237    1.8931 H   0  0  0  0  0  0  0  0  0  0  0  0
   -2.5452    0.3029    3.1269 H   0  0  0  0  0  0  0  0  0  0  0  0
   -4.2390    0.1116    2.9068 H   0  0  0  0  0  0  0  0  0  0  0  0
   -4.2698    0.8922   -1.3351 H   0  0  0  0  0  0  0  0  0  0  0  0
   -5.9393    0.8528   -0.8926 H   0  0  0  0  0  0  0  0  0  0  0  0
   -3.9012   -1.2229    0.0480 H   0  0  0  0  0  0  0  0  0  0  0  0
   -4.8688   -2.7928   -1.4497 H   0  0  0  0  0  0  0  0  0  0  0  0
   -6.9330   -1.1010    0.4280 H   0  0  0  0  0  0  0  0  0  0  0  0
   -5.7521   -0.8538    1.6831 H   0  0  0  0  0  0  0  0  0  0  0  0
   -4.1194   -0.3496   -3.1132 H   0  0  0  0  0  0  0  0  0  0  0  0
   -3.9380   -2.0544   -3.5159 H   0  0  0  0  0  0  0  0  0  0  0  0
   -2.9544   -1.3572   -2.2250 H   0  0  0  0  0  0  0  0  0  0  0  0
   -6.6448   -0.5701   -2.5819 H   0  0  0  0  0  0  0  0  0  0  0  0
   -7.2031   -1.9802   -1.6626 H   0  0  0  0  0  0  0  0  0  0  0  0
   -6.4537   -2.1973   -3.2400 H   0  0  0  0  0  0  0  0  0  0  0  0
   -6.2466   -3.4750    0.2269 H   0  0  0  0  0  0  0  0  0  0  0  0
   -4.8939   -3.1969    1.3460 H   0  0  0  0  0  0  0  0  0  0  0  0
   -6.5670   -3.0773    1.9142 H   0  0  0  0  0  0  0  0  0  0  0  0
  1 18  2  0  0  0  0
  2 24  2  0  0  0  0
  3  4  1  0  0  0  0
  3  7  1  0  0  0  0
  3  9  1  0  0  0  0
  3 16  1  0  0  0  0
  4  5  1  0  0  0  0
  4 11  1  0  0  0  0
  4 32  1  0  0  0  0
  5  6  1  0  0  0  0
  5 14  1  0  0  0  0
  5 33  1  0  0  0  0
  6  8  1  0  0  0  0
  6 10  1  0  0  0  0
  6 34  1  0  0  0  0
  7 12  1  0  0  0  0
  7 15  1  0  0  0  0
  7 35  1  0  0  0  0
  8 13  1  0  0  0  0
  8 17  1  0  0  0  0
  8 19  1  0  0  0  0
  9 10  1  0  0  0  0
  9 36  1  0  0  0  0
  9 37  1  0  0  0  0
 10 38  1  0  0  0  0
 10 39  1  0  0  0  0
 11 12  1  0  0  0  0
 11 40  1  0  0  0  0
 11 41  1  0  0  0  0
 12 42  1  0  0  0  0
 12 43  1  0  0  0  0
 13 18  1  0  0  0  0
 13 20  1  0  0  0  0
 13 44  1  0  0  0  0
 14 18  1  0  0  0  0
 14 45  1  0  0  0  0
 14 46  1  0  0  0  0
 15 22  1  0  0  0  0
 15 23  1  0  0  0  0
 15 47  1  0  0  0  0
 16 48  1  0  0  0  0
 16 49  1  0  0  0  0
 16 50  1  0  0  0  0
 17 21  1  0  0  0  0
 17 51  1  0  0  0  0
 17 52  1  0  0  0  0
 19 53  1  0  0  0  0
 19 54  1  0  0  0  0
 19 55  1  0  0  0  0
 20 24  1  0  0  0  0
 20 56  1  0  0  0  0
 20 57  1  0  0  0  0
 21 24  1  0  0  0  0
 21 58  1  0  0  0  0
 21 59  1  0  0  0  0
 22 25  1  0  0  0  0
 22 60  1  0  0  0  0
 22 61  1  0  0  0  0
 23 62  1  0  0  0  0
 23 63  1  0  0  0  0
 23 64  1  0  0  0  0
 25 26  1  0  0  0  0
 25 65  1  0  0  0  0
 25 66  1  0  0  0  0
 26 27  1  0  0  0  0
 26 28  1  0  0  0  0
 26 67  1  0  0  0  0
 27 29  1  0  0  0  0
 27 30  1  0  0  0  0
 27 68  1  0  0  0  0
 28 31  1  0  0  0  0
 28 69  1  0  0  0  0
 28 70  1  0  0  0  0
 29 71  1  0  0  0  0
 29 72  1  0  0  0  0
 29 73  1  0  0  0  0
 30 74  1  0  0  0  0
 30 75  1  0  0  0  0
 30 76  1  0  0  0  0
 31 77  1  0  0  0  0
 31 78  1  0  0  0  0
 31 79  1  0  0  0  0
M  END
> <PUBCHEM_COMPOUND_CID>
92043363

> <PUBCHEM_CONFORMER_RMSD>
1

> <PUBCHEM_CONFORMER_DIVERSEORDER>
5
79
36
17
73
23
105
114
72
14
22
103
65
70
68
37
111
50
46
113
60
83
85
91
12
108
1
80
29
26
45
4
101
107
86
102
53
66
59
89
33
62
55
97
87
34
96
21
11
98
81
84
67
49
40
63
56
93
82
43
104
41
7
109
77
74
78
99
42
90
28
71
31
19
35
95
57
39
76
51
88
25
32
115
58
112
24
69
30
48
92
9
16
27
10
2
110
6
75
47
54
3
64
38
13
94
100
15
106
8
52
18
61
20
44

> <PUBCHEM_MMFF94_PARTIAL_CHARGES>
8
1 -0.57
13 0.06
14 0.06
18 0.45
2 -0.57
20 0.06
21 0.06
24 0.45

> <PUBCHEM_EFFECTIVE_ROTOR_COUNT>
7.8

> <PUBCHEM_PHARMACOPHORE_FEATURES>
10
1 1 acceptor
1 2 acceptor
1 23 hydrophobe
1 31 hydrophobe
3 27 29 30 hydrophobe
5 3 4 7 11 12 rings
6 15 22 25 26 27 28 hydrophobe
6 3 4 5 6 9 10 rings
6 5 6 8 13 14 18 rings
6 8 13 17 20 21 24 rings

> <PUBCHEM_HEAVY_ATOM_COUNT>
31

> <PUBCHEM_ATOM_DEF_STEREO_COUNT>
6

> <PUBCHEM_ATOM_UDEF_STEREO_COUNT>
3

> <PUBCHEM_BOND_DEF_STEREO_COUNT>
0

> <PUBCHEM_BOND_UDEF_STEREO_COUNT>
0

> <PUBCHEM_ISOTOPIC_ATOM_COUNT>
0

> <PUBCHEM_COMPONENT_COUNT>
1

> <PUBCHEM_CACTVS_TAUTO_COUNT>
9

> <PUBCHEM_CONFORMER_ID>
057C786300000005

> <PUBCHEM_MMFF94_ENERGY>
104.1241

> <PUBCHEM_FEATURE_SELFOVERLAP>
50.849

> <PUBCHEM_SHAPE_FINGERPRINT>
10 15 14836110028179194650
10554248 39 15502658144881933058
11475781 23 15936676151287047180
117089 54 17681569352861751779
12166972 35 18409172074221218352
12236239 1 18411424981714225672
12422481 6 17703508822396141239
12645989 146 18042410119569553490
13583140 156 16701737134062479945
13782708 43 18272367530231217306
14251751 18 17632572755771966223
15082195 135 17097231638614825220
15163728 17 12324233924145148241
15183329 4 17749105582611377171
15188451 53 17703500052357362677
15320294 125 18202002123369795743
17349148 13 18408611339774128240
17913733 40 12607401092094876524
18222031 100 18040713637240824232
20028762 73 18334860489720272794
20775438 99 17975116949178489214
208703 8 18409167740324890359
21267235 1 17605014541015817528
21623969 137 14692567723825381886
22061861 79 17458061573241507767
22393880 68 16443347589308463545
23522609 53 18055947409029712696
23559900 14 17458641020613128008
23569914 152 16521274200301487215
2838139 119 13407062709269075039
312425 54 15410627977611771855
3882209 13 15869095571456585914
392239 28 13254785837346990092
397830 11 16988262253657881274
4015057 19 17822019743368022209
4098825 35 17530681005685471485
439807 62 18261961847055118579
46194498 28 16444475791871703623
5104073 3 16558742417181178194
5283173 99 15213012756824687805
57527293 21 16773511169932475393
6009941 240 16343143507154161465
6679774 75 11079671363510687836
7495541 125 17775282764188455312

> <PUBCHEM_SHAPE_MULTIPOLES>
626.23
16.66
2.77
2.25
0.84
0.43
0.35
13.59
4.15
-0.74
0.26
-1.74
0.17
-2.07

> <PUBCHEM_SHAPE_SELFOVERLAP>
1297.264

> <PUBCHEM_SHAPE_VOLUME>
356

> <PUBCHEM_COORDINATE_TYPE>
2
5
10

$$$$
