44521377
  -OEChem-08232003493D

 35 36  0     0  0  0  0  0  0999 V2000
    1.1822   -2.8959   -0.6951 O   0  0  0  0  0  0  0  0  0  0  0  0
   -4.4249    2.9757   -0.0805 O   0  0  0  0  0  0  0  0  0  0  0  0
    2.4445    2.7635    0.4790 O   0  0  0  0  0  0  0  0  0  0  0  0
    5.0873    2.0298    0.0254 O   0  0  0  0  0  0  0  0  0  0  0  0
   -0.1045   -1.5896    0.7244 N   0  0  0  0  0  0  0  0  0  0  0  0
   -2.2783   -2.2588   -0.2450 C   0  0  0  0  0  0  0  0  0  0  0  0
   -1.2199   -2.5029    0.8279 C   0  0  0  0  0  0  0  0  0  0  0  0
   -2.8502   -0.8631   -0.2007 C   0  0  0  0  0  0  0  0  0  0  0  0
   -3.9738   -0.5943    0.5810 C   0  0  0  0  0  0  0  0  0  0  0  0
   -2.2558    0.1581   -0.9419 C   0  0  0  0  0  0  0  0  0  0  0  0
    1.0392   -1.8483   -0.0400 C   0  0  0  0  0  0  0  0  0  0  0  0
    2.0868   -0.8397   -0.0223 C   0  0  0  0  0  0  0  0  0  0  0  0
   -4.5027    0.6958    0.6215 C   0  0  0  0  0  0  0  0  0  0  0  0
   -2.7848    1.4481   -0.9016 C   0  0  0  0  0  0  0  0  0  0  0  0
    1.7656    0.4955    0.2219 C   0  0  0  0  0  0  0  0  0  0  0  0
   -3.9083    1.7170   -0.1199 C   0  0  0  0  0  0  0  0  0  0  0  0
    3.4128   -1.2078   -0.2500 C   0  0  0  0  0  0  0  0  0  0  0  0
    2.7706    1.4627    0.2387 C   0  0  0  0  0  0  0  0  0  0  0  0
    4.4177   -0.2405   -0.2335 C   0  0  0  0  0  0  0  0  0  0  0  0
    4.0966    1.0947    0.0109 C   0  0  0  0  0  0  0  0  0  0  0  0
   -3.0885   -2.9900   -0.1313 H   0  0  0  0  0  0  0  0  0  0  0  0
   -1.8511   -2.4398   -1.2401 H   0  0  0  0  0  0  0  0  0  0  0  0
   -1.6475   -2.3721    1.8281 H   0  0  0  0  0  0  0  0  0  0  0  0
   -0.8483   -3.5306    0.7529 H   0  0  0  0  0  0  0  0  0  0  0  0
   -0.1579   -0.7522    1.2941 H   0  0  0  0  0  0  0  0  0  0  0  0
   -4.4445   -1.3812    1.1643 H   0  0  0  0  0  0  0  0  0  0  0  0
   -1.3820   -0.0377   -1.5576 H   0  0  0  0  0  0  0  0  0  0  0  0
   -5.3778    0.8992    1.2327 H   0  0  0  0  0  0  0  0  0  0  0  0
   -2.3124    2.2346   -1.4839 H   0  0  0  0  0  0  0  0  0  0  0  0
    0.7387    0.8168    0.3711 H   0  0  0  0  0  0  0  0  0  0  0  0
    3.6846   -2.2433   -0.4378 H   0  0  0  0  0  0  0  0  0  0  0  0
    5.4468   -0.5411   -0.4114 H   0  0  0  0  0  0  0  0  0  0  0  0
   -3.8900    3.5537   -0.6514 H   0  0  0  0  0  0  0  0  0  0  0  0
    1.4839    2.8313    0.6153 H   0  0  0  0  0  0  0  0  0  0  0  0
    5.9380    1.5927   -0.1513 H   0  0  0  0  0  0  0  0  0  0  0  0
  1 11  2  0  0  0  0
  2 16  1  0  0  0  0
  2 33  1  0  0  0  0
  3 18  1  0  0  0  0
  3 34  1  0  0  0  0
  4 20  1  0  0  0  0
  4 35  1  0  0  0  0
  5  7  1  0  0  0  0
  5 11  1  0  0  0  0
  5 25  1  0  0  0  0
  6  7  1  0  0  0  0
  6  8  1  0  0  0  0
  6 21  1  0  0  0  0
  6 22  1  0  0  0  0
  7 23  1  0  0  0  0
  7 24  1  0  0  0  0
  8  9  2  0  0  0  0
  8 10  1  0  0  0  0
  9 13  1  0  0  0  0
  9 26  1  0  0  0  0
 10 14  2  0  0  0  0
 10 27  1  0  0  0  0
 11 12  1  0  0  0  0
 12 15  2  0  0  0  0
 12 17  1  0  0  0  0
 13 16  2  0  0  0  0
 13 28  1  0  0  0  0
 14 16  1  0  0  0  0
 14 29  1  0  0  0  0
 15 18  1  0  0  0  0
 15 30  1  0  0  0  0
 17 19  2  0  0  0  0
 17 31  1  0  0  0  0
 18 20  2  0  0  0  0
 19 20  1  0  0  0  0
 19 32  1  0  0  0  0
M  END
> <PUBCHEM_COMPOUND_CID>
44521377

> <PUBCHEM_CONFORMER_RMSD>
0.8

> <PUBCHEM_CONFORMER_DIVERSEORDER>
1
21
11
20
22
16
7
10
17
5
4
8
9
12
18
13
3
15
2
6
23
19
14

> <PUBCHEM_MMFF94_PARTIAL_CHARGES>
31
1 -0.57
10 -0.15
11 0.54
12 0.09
13 -0.15
14 -0.15
15 -0.15
16 0.08
17 -0.15
18 0.08
19 -0.15
2 -0.53
20 0.08
25 0.37
26 0.15
27 0.15
28 0.15
29 0.15
3 -0.53
30 0.15
31 0.15
32 0.15
33 0.45
34 0.45
35 0.45
4 -0.53
5 -0.73
6 0.14
7 0.3
8 -0.14
9 -0.15

> <PUBCHEM_EFFECTIVE_ROTOR_COUNT>
5

> <PUBCHEM_PHARMACOPHORE_FEATURES>
7
1 1 acceptor
1 2 donor
1 3 donor
1 4 donor
1 5 donor
6 12 15 17 18 19 20 rings
6 8 9 10 13 14 16 rings

> <PUBCHEM_HEAVY_ATOM_COUNT>
20

> <PUBCHEM_ATOM_DEF_STEREO_COUNT>
0

> <PUBCHEM_ATOM_UDEF_STEREO_COUNT>
0

> <PUBCHEM_BOND_DEF_STEREO_COUNT>
0

> <PUBCHEM_BOND_UDEF_STEREO_COUNT>
0

> <PUBCHEM_ISOTOPIC_ATOM_COUNT>
0

> <PUBCHEM_COMPONENT_COUNT>
1

> <PUBCHEM_CACTVS_TAUTO_COUNT>
44

> <PUBCHEM_CONFORMER_ID>
02A757A100000001

> <PUBCHEM_MMFF94_ENERGY>
47.3943

> <PUBCHEM_FEATURE_SELFOVERLAP>
35.527

> <PUBCHEM_SHAPE_FINGERPRINT>
10498660 4 18188199919372108549
10608611 8 18410011073942770058
10646746 165 18336265725667329710
1100329 8 17041761989667815984
11615756 256 18335422430018093676
12363563 72 10087634935822562175
12403260 363 18266163110411292030
12633257 1 18262787454762393946
13402501 40 18408604755573737869
13464514 151 18410295766061111986
14123255 52 18410009897427445699
14251764 38 18265613363155690060
14251764 75 18198070170925992905
14466204 15 18338505461266066648
15196674 1 18410011026608095246
17834072 32 18410292480373791477
18186145 218 18201725080435102850
21279426 13 18341057346228623854
21652331 79 18335420188224454539
21864079 5 18409442562264987979
221357 26 18271525406902129783
22182937 141 18410298021071585619
23227448 37 18412544336249093519
23402655 69 18272933843022263884
23559900 14 18271242725783829690
23845131 108 18042126467176169731
25 1 18410571747647927054
27216 239 18261115175556098627
3524813 1 18334010554051012157
3680242 22 18191866730289026186
474 4 18340485573763692219
5048184 11 18410009918839238541
5081480 168 17127643893704366343
5104073 3 18260266317560341235
6287921 2 18190466154022866780
633830 44 18411694353388707174
7064713 232 18187369817725580749
7808743 9 18408884074471344489

> <PUBCHEM_SHAPE_MULTIPOLES>
383.13
10.31
3.27
0.83
1.34
0.15
-0.03
6.7
0.26
-0.58
0.09
-0.37
-0.09
0.68

> <PUBCHEM_SHAPE_SELFOVERLAP>
818.724

> <PUBCHEM_SHAPE_VOLUME>
211.9

> <PUBCHEM_COORDINATE_TYPE>
2
5
10

$$$$
