51040390
  -OEChem-11202023453D

105110  0     1  0  0  0  0  0999 V2000
    1.1724    0.9904    0.1115 O   0  0  0  0  0  0  0  0  0  0  0  0
   -7.7115    1.9435    0.9815 O   0  0  0  0  0  0  0  0  0  0  0  0
   -5.3328    3.1399   -1.0778 O   0  0  0  0  0  0  0  0  0  0  0  0
    2.8707   -0.5028   -0.4989 O   0  0  0  0  0  0  0  0  0  0  0  0
   -7.0907   -3.8274   -1.9349 O   0  0  0  0  0  0  0  0  0  0  0  0
    5.5808    0.1252    0.2787 O   0  0  0  0  0  0  0  0  0  0  0  0
    5.5723    2.6155   -0.9125 O   0  0  0  0  0  0  0  0  0  0  0  0
   -7.5363   -5.6608   -0.6173 O   0  0  0  0  0  0  0  0  0  0  0  0
    7.2235   -1.3962   -0.3562 O   0  0  0  0  0  0  0  0  0  0  0  0
    7.2532    1.0068    2.4116 O   0  0  0  0  0  0  0  0  0  0  0  0
    9.0825   -1.0767    3.2945 O   0  0  0  0  0  0  0  0  0  0  0  0
   10.5106   -2.2014    1.0714 O   0  0  0  0  0  0  0  0  0  0  0  0
    8.2720   -2.6954   -2.5301 O   0  0  0  0  0  0  0  0  0  0  0  0
   -2.2995    2.2458    0.5593 C   0  0  1  0  0  0  0  0  0  0  0  0
   -1.2818    2.7761   -0.5072 C   0  0  1  0  0  0  0  0  0  0  0  0
   -3.5909    1.7196   -0.1527 C   0  0  1  0  0  0  0  0  0  0  0  0
   -1.6017    1.1393    1.3991 C   0  0  0  0  0  0  0  0  0  0  0  0
   -6.6924   -0.2989    1.0285 C   0  0  2  0  0  0  0  0  0  0  0  0
   -0.6497    1.6411   -1.3460 C   0  0  0  0  0  0  0  0  0  0  0  0
   -4.6878    1.2123    0.7890 C   0  0  0  0  0  0  0  0  0  0  0  0
   -1.9105    3.8369   -1.4308 C   0  0  0  0  0  0  0  0  0  0  0  0
   -5.6081    0.2287    0.0781 C   0  0  0  0  0  0  0  0  0  0  0  0
   -0.0322    0.5310   -0.4980 C   0  0  2  0  0  0  0  0  0  0  0  0
   -0.9961    0.0122    0.5642 C   0  0  0  0  0  0  0  0  0  0  0  0
   -7.8839   -0.9173    0.2494 C   0  0  2  0  0  0  0  0  0  0  0  0
   -2.6567    3.3877    1.5464 C   0  0  0  0  0  0  0  0  0  0  0  0
   -4.1509    2.7969   -1.0863 C   0  0  0  0  0  0  0  0  0  0  0  0
   -3.1910    3.3671   -2.1035 C   0  0  0  0  0  0  0  0  0  0  0  0
   -7.4058    0.8269    1.8137 C   0  0  2  0  0  0  0  0  0  0  0  0
   -9.0396   -0.9122    1.2617 C   0  0  0  0  0  0  0  0  0  0  0  0
   -8.7310    0.2076    2.2631 C   0  0  0  0  0  0  0  0  0  0  0  0
   -6.0396   -1.2916    2.0143 C   0  0  0  0  0  0  0  0  0  0  0  0
   -7.6560   -2.2617   -0.3633 C   0  0  0  0  0  0  0  0  0  0  0  0
    2.2950    0.7819   -0.7398 C   0  0  2  0  0  0  0  0  0  0  0  0
   -7.1687   -2.4101   -1.7498 C   0  0  0  0  0  0  0  0  0  0  0  0
   -7.8457   -3.4473    0.2094 C   0  0  0  0  0  0  0  0  0  0  0  0
    3.3119    1.8832   -0.4536 C   0  0  0  0  0  0  0  0  0  0  0  0
    4.5792    1.6641   -1.2736 C   0  0  2  0  0  0  0  0  0  0  0  0
    5.1187    0.2469   -1.0680 C   0  0  2  0  0  0  0  0  0  0  0  0
    4.0031   -0.7744   -1.3372 C   0  0  1  0  0  0  0  0  0  0  0  0
   -7.4867   -4.4551   -0.7894 C   0  0  0  0  0  0  0  0  0  0  0  0
    4.4351   -2.2104   -1.0651 C   0  0  0  0  0  0  0  0  0  0  0  0
    6.9679   -0.1685    0.3219 C   0  0  2  0  0  0  0  0  0  0  0  0
    7.3789   -0.2718    1.7906 C   0  0  1  0  0  0  0  0  0  0  0  0
    8.8294   -0.7338    1.9310 C   0  0  2  0  0  0  0  0  0  0  0  0
    5.3435    3.8706   -1.5382 C   0  0  0  0  0  0  0  0  0  0  0  0
    8.6108   -1.7371   -0.3681 C   0  0  1  0  0  0  0  0  0  0  0  0
    9.1057   -1.9614    1.0627 C   0  0  1  0  0  0  0  0  0  0  0  0
    8.7606   -2.9849   -1.2330 C   0  0  0  0  0  0  0  0  0  0  0  0
   -0.4549    3.2680    0.0255 H   0  0  0  0  0  0  0  0  0  0  0  0
   -3.3099    0.8888   -0.8117 H   0  0  0  0  0  0  0  0  0  0  0  0
   -2.2703    0.7103    2.1513 H   0  0  0  0  0  0  0  0  0  0  0  0
   -0.7866    1.5993    1.9762 H   0  0  0  0  0  0  0  0  0  0  0  0
    0.1093    2.0815   -2.0036 H   0  0  0  0  0  0  0  0  0  0  0  0
   -1.4024    1.1906   -2.0024 H   0  0  0  0  0  0  0  0  0  0  0  0
   -4.2395    0.7047    1.6431 H   0  0  0  0  0  0  0  0  0  0  0  0
   -5.2342    2.0682    1.1959 H   0  0  0  0  0  0  0  0  0  0  0  0
   -2.1246    4.7403   -0.8469 H   0  0  0  0  0  0  0  0  0  0  0  0
   -1.1887    4.1414   -2.1985 H   0  0  0  0  0  0  0  0  0  0  0  0
   -6.0747    0.7150   -0.7863 H   0  0  0  0  0  0  0  0  0  0  0  0
   -5.0206   -0.6057   -0.3245 H   0  0  0  0  0  0  0  0  0  0  0  0
    0.1998   -0.3241   -1.1482 H   0  0  0  0  0  0  0  0  0  0  0  0
   -1.7980   -0.5640    0.0889 H   0  0  0  0  0  0  0  0  0  0  0  0
   -0.4657   -0.6721    1.2376 H   0  0  0  0  0  0  0  0  0  0  0  0
   -8.1800   -0.2327   -0.5595 H   0  0  0  0  0  0  0  0  0  0  0  0
   -3.2362    4.1850    1.0715 H   0  0  0  0  0  0  0  0  0  0  0  0
   -1.7519    3.8429    1.9654 H   0  0  0  0  0  0  0  0  0  0  0  0
   -3.2496    3.0137    2.3887 H   0  0  0  0  0  0  0  0  0  0  0  0
   -3.6701    4.2117   -2.6106 H   0  0  0  0  0  0  0  0  0  0  0  0
   -2.9940    2.5996   -2.8584 H   0  0  0  0  0  0  0  0  0  0  0  0
   -6.8276    1.1895    2.6703 H   0  0  0  0  0  0  0  0  0  0  0  0
   -9.9920   -0.7221    0.7525 H   0  0  0  0  0  0  0  0  0  0  0  0
   -9.1661   -1.8460    1.8172 H   0  0  0  0  0  0  0  0  0  0  0  0
   -8.6232   -0.2275    3.2636 H   0  0  0  0  0  0  0  0  0  0  0  0
   -9.5486    0.9352    2.3008 H   0  0  0  0  0  0  0  0  0  0  0  0
   -5.3713   -0.7860    2.7187 H   0  0  0  0  0  0  0  0  0  0  0  0
   -5.4491   -2.0513    1.4903 H   0  0  0  0  0  0  0  0  0  0  0  0
   -6.7826   -1.8184    2.6224 H   0  0  0  0  0  0  0  0  0  0  0  0
   -8.1591    2.6066    1.5343 H   0  0  0  0  0  0  0  0  0  0  0  0
    2.0007    0.8454   -1.7962 H   0  0  0  0  0  0  0  0  0  0  0  0
   -6.1748   -1.9812   -1.8991 H   0  0  0  0  0  0  0  0  0  0  0  0
   -7.8672   -1.9945   -2.4819 H   0  0  0  0  0  0  0  0  0  0  0  0
   -8.1788   -3.6857    1.2040 H   0  0  0  0  0  0  0  0  0  0  0  0
    2.8608    2.8609   -0.6570 H   0  0  0  0  0  0  0  0  0  0  0  0
    3.5592    1.9009    0.6164 H   0  0  0  0  0  0  0  0  0  0  0  0
    4.3382    1.7712   -2.3409 H   0  0  0  0  0  0  0  0  0  0  0  0
    5.9361    0.0897   -1.7849 H   0  0  0  0  0  0  0  0  0  0  0  0
    3.6806   -0.7068   -2.3843 H   0  0  0  0  0  0  0  0  0  0  0  0
    3.6049   -2.8950   -1.2732 H   0  0  0  0  0  0  0  0  0  0  0  0
    5.2787   -2.5007   -1.6973 H   0  0  0  0  0  0  0  0  0  0  0  0
    4.6959   -2.3625   -0.0126 H   0  0  0  0  0  0  0  0  0  0  0  0
    7.5117    0.6509   -0.1681 H   0  0  0  0  0  0  0  0  0  0  0  0
    6.7067   -0.9511    2.3284 H   0  0  0  0  0  0  0  0  0  0  0  0
    9.5234    0.0797    1.6881 H   0  0  0  0  0  0  0  0  0  0  0  0
    9.1655   -0.9217   -0.8521 H   0  0  0  0  0  0  0  0  0  0  0  0
    8.6202   -2.8412    1.5023 H   0  0  0  0  0  0  0  0  0  0  0  0
    6.1688    4.5360   -1.2689 H   0  0  0  0  0  0  0  0  0  0  0  0
    4.4151    4.3295   -1.1891 H   0  0  0  0  0  0  0  0  0  0  0  0
    5.3322    3.7684   -2.6279 H   0  0  0  0  0  0  0  0  0  0  0  0
    9.8071   -3.2944   -1.3107 H   0  0  0  0  0  0  0  0  0  0  0  0
    8.1667   -3.8120   -0.8298 H   0  0  0  0  0  0  0  0  0  0  0  0
    7.8192    1.6331    1.9290 H   0  0  0  0  0  0  0  0  0  0  0  0
    8.4744   -1.7934    3.5437 H   0  0  0  0  0  0  0  0  0  0  0  0
   10.9474   -1.4442    0.6452 H   0  0  0  0  0  0  0  0  0  0  0  0
    8.3704   -3.5041   -3.0610 H   0  0  0  0  0  0  0  0  0  0  0  0
  1 23  1  0  0  0  0
  1 34  1  0  0  0  0
  2 29  1  0  0  0  0
  2 79  1  0  0  0  0
  3 27  2  0  0  0  0
  4 34  1  0  0  0  0
  4 40  1  0  0  0  0
  5 35  1  0  0  0  0
  5 41  1  0  0  0  0
  6 39  1  0  0  0  0
  6 43  1  0  0  0  0
  7 38  1  0  0  0  0
  7 46  1  0  0  0  0
  8 41  2  0  0  0  0
  9 43  1  0  0  0  0
  9 47  1  0  0  0  0
 10 44  1  0  0  0  0
 10102  1  0  0  0  0
 11 45  1  0  0  0  0
 11103  1  0  0  0  0
 12 48  1  0  0  0  0
 12104  1  0  0  0  0
 13 49  1  0  0  0  0
 13105  1  0  0  0  0
 14 15  1  0  0  0  0
 14 16  1  0  0  0  0
 14 17  1  0  0  0  0
 14 26  1  0  0  0  0
 15 19  1  0  0  0  0
 15 21  1  0  0  0  0
 15 50  1  0  0  0  0
 16 20  1  0  0  0  0
 16 27  1  0  0  0  0
 16 51  1  0  0  0  0
 17 24  1  0  0  0  0
 17 52  1  0  0  0  0
 17 53  1  0  0  0  0
 18 22  1  0  0  0  0
 18 25  1  0  0  0  0
 18 29  1  0  0  0  0
 18 32  1  0  0  0  0
 19 23  1  0  0  0  0
 19 54  1  0  0  0  0
 19 55  1  0  0  0  0
 20 22  1  0  0  0  0
 20 56  1  0  0  0  0
 20 57  1  0  0  0  0
 21 28  1  0  0  0  0
 21 58  1  0  0  0  0
 21 59  1  0  0  0  0
 22 60  1  0  0  0  0
 22 61  1  0  0  0  0
 23 24  1  0  0  0  0
 23 62  1  0  0  0  0
 24 63  1  0  0  0  0
 24 64  1  0  0  0  0
 25 30  1  0  0  0  0
 25 33  1  0  0  0  0
 25 65  1  0  0  0  0
 26 66  1  0  0  0  0
 26 67  1  0  0  0  0
 26 68  1  0  0  0  0
 27 28  1  0  0  0  0
 28 69  1  0  0  0  0
 28 70  1  0  0  0  0
 29 31  1  0  0  0  0
 29 71  1  0  0  0  0
 30 31  1  0  0  0  0
 30 72  1  0  0  0  0
 30 73  1  0  0  0  0
 31 74  1  0  0  0  0
 31 75  1  0  0  0  0
 32 76  1  0  0  0  0
 32 77  1  0  0  0  0
 32 78  1  0  0  0  0
 33 35  1  0  0  0  0
 33 36  2  0  0  0  0
 34 37  1  0  0  0  0
 34 80  1  0  0  0  0
 35 81  1  0  0  0  0
 35 82  1  0  0  0  0
 36 41  1  0  0  0  0
 36 83  1  0  0  0  0
 37 38  1  0  0  0  0
 37 84  1  0  0  0  0
 37 85  1  0  0  0  0
 38 39  1  0  0  0  0
 38 86  1  0  0  0  0
 39 40  1  0  0  0  0
 39 87  1  0  0  0  0
 40 42  1  0  0  0  0
 40 88  1  0  0  0  0
 42 89  1  0  0  0  0
 42 90  1  0  0  0  0
 42 91  1  0  0  0  0
 43 44  1  0  0  0  0
 43 92  1  0  0  0  0
 44 45  1  0  0  0  0
 44 93  1  0  0  0  0
 45 48  1  0  0  0  0
 45 94  1  0  0  0  0
 46 97  1  0  0  0  0
 46 98  1  0  0  0  0
 46 99  1  0  0  0  0
 47 48  1  0  0  0  0
 47 49  1  0  0  0  0
 47 95  1  0  0  0  0
 48 96  1  0  0  0  0
 49100  1  0  0  0  0
 49101  1  0  0  0  0
M  END
> <PUBCHEM_COMPOUND_CID>
51040390

> <PUBCHEM_CONFORMER_RMSD>
1.4

> <PUBCHEM_CONFORMER_DIVERSEORDER>
1
48
51
50
8
37
29
30
15
42
13
21
9
38
11
43
40
7
20
4
10
6
52
23
28
33
46
18
44
39
12
45
19
17
3
22
49
34
47
41
25
14
35
2
16
5
24
31
36
27
26
32

> <PUBCHEM_MMFF94_PARTIAL_CHARGES>
40
1 -0.56
10 -0.68
102 0.4
103 0.4
104 0.4
105 0.4
11 -0.68
12 -0.68
13 -0.68
16 0.06
2 -0.68
23 0.28
25 0.14
27 0.45
28 0.06
29 0.28
3 -0.57
33 -0.28
34 0.56
35 0.42
36 -0.14
38 0.28
39 0.28
4 -0.56
40 0.28
41 0.71
43 0.56
44 0.28
45 0.28
46 0.28
47 0.28
48 0.28
49 0.28
5 -0.43
6 -0.56
7 -0.56
79 0.4
8 -0.57
83 0.15
9 -0.56

> <PUBCHEM_EFFECTIVE_ROTOR_COUNT>
15.2

> <PUBCHEM_PHARMACOPHORE_FEATURES>
23
1 1 acceptor
1 10 acceptor
1 10 donor
1 11 acceptor
1 11 donor
1 12 acceptor
1 12 donor
1 13 acceptor
1 13 donor
1 2 acceptor
1 2 donor
1 3 acceptor
1 4 acceptor
1 6 acceptor
1 7 acceptor
1 8 acceptor
1 9 acceptor
5 18 25 29 30 31 rings
5 5 33 35 36 41 rings
6 14 15 16 21 27 28 rings
6 14 15 17 19 23 24 rings
6 4 34 37 38 39 40 rings
6 9 43 44 45 47 48 rings

> <PUBCHEM_HEAVY_ATOM_COUNT>
49

> <PUBCHEM_ATOM_DEF_STEREO_COUNT>
16

> <PUBCHEM_ATOM_UDEF_STEREO_COUNT>
0

> <PUBCHEM_BOND_DEF_STEREO_COUNT>
0

> <PUBCHEM_BOND_UDEF_STEREO_COUNT>
0

> <PUBCHEM_ISOTOPIC_ATOM_COUNT>
0

> <PUBCHEM_COMPONENT_COUNT>
1

> <PUBCHEM_CACTVS_TAUTO_COUNT>
3

> <PUBCHEM_CONFORMER_ID>
030AD08600000001

> <PUBCHEM_MMFF94_ENERGY>
148.578

> <PUBCHEM_FEATURE_SELFOVERLAP>
116.915

> <PUBCHEM_SHAPE_FINGERPRINT>
10533779 47 17346315931391841118
11497681 19 18411426136833595165
11672396 43 18411138013785605764
13383668 251 18342741771908874548
13383668 254 15051437367028621554
13383668 362 18201714090204447672
13782708 43 18410578396368330885
13811026 1 18186520986090489228
15064981 113 14056996118448425361
15461852 350 17749679480610619852
16067689 68 18272378551365101929
16728433 281 9799700298614045239
1754908 1 17704071802382587258
19303781 99 17968384532945762703
19315958 150 11959733759259077220
19841028 212 18113626707070579168
2026 5 18188209793533993034
21867126 195 18334011697082076884
25025965 108 18261101972468454867
25242607 90 18408321098774935016
335507 130 18261397728506316595
3711267 37 11312053274816031154
3986486 107 10881397609253658242
4353968 344 18041273279826886413
44802255 64 12757155688833320937
4516262 110 16444775937514771916
4616759 239 17561092384923802409
6289498 60 13758355544577399258
6698420 124 11095898059688356317
6703917 75 9727636099196367633
9962374 69 18260271854585516444

> <PUBCHEM_SHAPE_MULTIPOLES>
932.1
37.96
5.4
2.26
34.63
2.39
-0.79
39.1
-12.07
-8.26
3.37
1.71
0.24
-2.66

> <PUBCHEM_SHAPE_SELFOVERLAP>
1965.738

> <PUBCHEM_SHAPE_VOLUME>
517.1

> <PUBCHEM_COORDINATE_TYPE>
2
5
10

$$$$
