15558417
  -OEChem-11202023443D

 59 64  0     1  0  0  0  0  0999 V2000
   -0.3965   -1.6271    1.1738 O   0  0  0  0  0  0  0  0  0  0  0  0
   -6.2520    1.1807   -0.6786 O   0  0  0  0  0  0  0  0  0  0  0  0
    5.4009    1.9032   -0.2552 O   0  0  0  0  0  0  0  0  0  0  0  0
    7.2066    0.5130    0.0653 O   0  0  0  0  0  0  0  0  0  0  0  0
    0.4561   -1.2723    0.0768 C   0  0  1  0  0  0  0  0  0  0  0  0
   -1.0584   -1.0781    0.0294 C   0  0  2  0  0  0  0  0  0  0  0  0
    1.4229   -0.1347    0.3545 C   0  0  1  0  0  0  0  0  0  0  0  0
   -1.6185    0.3311    0.1574 C   0  0  1  0  0  0  0  0  0  0  0  0
   -3.0513    0.3197    0.8100 C   0  0  2  0  0  0  0  0  0  0  0  0
    1.1443   -2.4017   -0.6337 C   0  0  0  0  0  0  0  0  0  0  0  0
   -1.9386   -2.0705   -0.6773 C   0  0  0  0  0  0  0  0  0  0  0  0
    2.5292   -0.4205   -0.7142 C   0  0  2  0  0  0  0  0  0  0  0  0
    0.7536    1.2309    0.1225 C   0  0  0  0  0  0  0  0  0  0  0  0
   -0.6201    1.3174    0.7981 C   0  0  0  0  0  0  0  0  0  0  0  0
   -3.9726   -0.6846    0.0327 C   0  0  2  0  0  0  0  0  0  0  0  0
    2.6075   -1.9563   -0.7323 C   0  0  0  0  0  0  0  0  0  0  0  0
   -3.3424   -2.0870   -0.0768 C   0  0  0  0  0  0  0  0  0  0  0  0
    1.9782   -0.2240    1.7962 C   0  0  0  0  0  0  0  0  0  0  0  0
   -3.7197    1.7248    0.7868 C   0  0  0  0  0  0  0  0  0  0  0  0
   -2.9806   -0.0966    2.3018 C   0  0  0  0  0  0  0  0  0  0  0  0
   -4.3703   -0.1692   -1.3707 C   0  0  0  0  0  0  0  0  0  0  0  0
    3.8544    0.2328   -0.4973 C   0  0  0  0  0  0  0  0  0  0  0  0
   -4.0882    2.2187   -0.6111 C   0  0  0  0  0  0  0  0  0  0  0  0
   -4.9882    1.2264   -1.3380 C   0  0  2  0  0  0  0  0  0  0  0  0
    4.0031    1.7022   -0.4893 C   0  0  0  0  0  0  0  0  0  0  0  0
    5.0225   -0.3701   -0.2933 C   0  0  0  0  0  0  0  0  0  0  0  0
    6.0181    0.6916   -0.1376 C   0  0  0  0  0  0  0  0  0  0  0  0
   -1.7318    0.6775   -0.8785 H   0  0  0  0  0  0  0  0  0  0  0  0
    0.7302   -2.5208   -1.6410 H   0  0  0  0  0  0  0  0  0  0  0  0
    1.0565   -3.3557   -0.1045 H   0  0  0  0  0  0  0  0  0  0  0  0
   -1.5262   -3.0845   -0.6158 H   0  0  0  0  0  0  0  0  0  0  0  0
   -1.9805   -1.8185   -1.7427 H   0  0  0  0  0  0  0  0  0  0  0  0
    2.1630   -0.1079   -1.7036 H   0  0  0  0  0  0  0  0  0  0  0  0
    0.6245    1.4203   -0.9509 H   0  0  0  0  0  0  0  0  0  0  0  0
    1.3721    2.0442    0.5119 H   0  0  0  0  0  0  0  0  0  0  0  0
   -0.5189    1.1398    1.8723 H   0  0  0  0  0  0  0  0  0  0  0  0
   -0.9856    2.3433    0.6807 H   0  0  0  0  0  0  0  0  0  0  0  0
   -4.9063   -0.8005    0.6018 H   0  0  0  0  0  0  0  0  0  0  0  0
    3.1551   -2.3554    0.1300 H   0  0  0  0  0  0  0  0  0  0  0  0
    3.0826   -2.3454   -1.6392 H   0  0  0  0  0  0  0  0  0  0  0  0
   -3.9854   -2.7426   -0.6766 H   0  0  0  0  0  0  0  0  0  0  0  0
   -3.2980   -2.5406    0.9208 H   0  0  0  0  0  0  0  0  0  0  0  0
    2.4756   -1.1815    1.9833 H   0  0  0  0  0  0  0  0  0  0  0  0
    2.6968    0.5747    2.0056 H   0  0  0  0  0  0  0  0  0  0  0  0
    1.1834   -0.1401    2.5447 H   0  0  0  0  0  0  0  0  0  0  0  0
   -3.0830    2.4698    1.2765 H   0  0  0  0  0  0  0  0  0  0  0  0
   -4.6392    1.6937    1.3883 H   0  0  0  0  0  0  0  0  0  0  0  0
   -3.5045   -0.1537   -2.0411 H   0  0  0  0  0  0  0  0  0  0  0  0
   -5.0958   -0.8694   -1.8044 H   0  0  0  0  0  0  0  0  0  0  0  0
   -2.4897   -1.0606    2.4525 H   0  0  0  0  0  0  0  0  0  0  0  0
   -2.4435    0.6456    2.9015 H   0  0  0  0  0  0  0  0  0  0  0  0
   -3.9868   -0.1820    2.7297 H   0  0  0  0  0  0  0  0  0  0  0  0
   -4.6014    3.1829   -0.5124 H   0  0  0  0  0  0  0  0  0  0  0  0
   -3.1807    2.3995   -1.1974 H   0  0  0  0  0  0  0  0  0  0  0  0
   -5.1695    1.5676   -2.3633 H   0  0  0  0  0  0  0  0  0  0  0  0
    3.7315    2.1556   -1.4469 H   0  0  0  0  0  0  0  0  0  0  0  0
    3.4665    2.1903    0.3243 H   0  0  0  0  0  0  0  0  0  0  0  0
    5.2537   -1.4198   -0.2458 H   0  0  0  0  0  0  0  0  0  0  0  0
   -6.6292    2.0766   -0.7031 H   0  0  0  0  0  0  0  0  0  0  0  0
  1  5  1  0  0  0  0
  1  6  1  0  0  0  0
  2 24  1  0  0  0  0
  2 59  1  0  0  0  0
  3 25  1  0  0  0  0
  3 27  1  0  0  0  0
  4 27  2  0  0  0  0
  5  6  1  0  0  0  0
  5  7  1  0  0  0  0
  5 10  1  0  0  0  0
  6  8  1  0  0  0  0
  6 11  1  0  0  0  0
  7 12  1  0  0  0  0
  7 13  1  0  0  0  0
  7 18  1  0  0  0  0
  8  9  1  0  0  0  0
  8 14  1  0  0  0  0
  8 28  1  0  0  0  0
  9 15  1  0  0  0  0
  9 19  1  0  0  0  0
  9 20  1  0  0  0  0
 10 16  1  0  0  0  0
 10 29  1  0  0  0  0
 10 30  1  0  0  0  0
 11 17  1  0  0  0  0
 11 31  1  0  0  0  0
 11 32  1  0  0  0  0
 12 16  1  0  0  0  0
 12 22  1  0  0  0  0
 12 33  1  0  0  0  0
 13 14  1  0  0  0  0
 13 34  1  0  0  0  0
 13 35  1  0  0  0  0
 14 36  1  0  0  0  0
 14 37  1  0  0  0  0
 15 17  1  0  0  0  0
 15 21  1  0  0  0  0
 15 38  1  0  0  0  0
 16 39  1  0  0  0  0
 16 40  1  0  0  0  0
 17 41  1  0  0  0  0
 17 42  1  0  0  0  0
 18 43  1  0  0  0  0
 18 44  1  0  0  0  0
 18 45  1  0  0  0  0
 19 23  1  0  0  0  0
 19 46  1  0  0  0  0
 19 47  1  0  0  0  0
 20 50  1  0  0  0  0
 20 51  1  0  0  0  0
 20 52  1  0  0  0  0
 21 24  1  0  0  0  0
 21 48  1  0  0  0  0
 21 49  1  0  0  0  0
 22 25  1  0  0  0  0
 22 26  2  0  0  0  0
 23 24  1  0  0  0  0
 23 53  1  0  0  0  0
 23 54  1  0  0  0  0
 24 55  1  0  0  0  0
 25 56  1  0  0  0  0
 25 57  1  0  0  0  0
 26 27  1  0  0  0  0
 26 58  1  0  0  0  0
M  END
> <PUBCHEM_COMPOUND_CID>
15558417

> <PUBCHEM_CONFORMER_RMSD>
0.8

> <PUBCHEM_CONFORMER_DIVERSEORDER>
1
4
3
5
2
6

> <PUBCHEM_MMFF94_PARTIAL_CHARGES>
18
1 -0.3
10 0.09
11 0.09
12 0.14
2 -0.68
22 -0.28
24 0.28
25 0.42
26 -0.14
27 0.71
3 -0.43
4 -0.57
5 -0.04
58 0.15
59 0.4
6 -0.04
7 0.09
8 0.09

> <PUBCHEM_EFFECTIVE_ROTOR_COUNT>
3.8

> <PUBCHEM_PHARMACOPHORE_FEATURES>
9
1 1 acceptor
1 2 acceptor
1 2 donor
1 4 acceptor
5 3 22 25 26 27 rings
5 5 7 10 12 16 rings
6 6 8 9 11 15 17 rings
6 9 15 19 21 23 24 rings
7 1 5 6 7 8 13 14 rings

> <PUBCHEM_HEAVY_ATOM_COUNT>
27

> <PUBCHEM_ATOM_DEF_STEREO_COUNT>
8

> <PUBCHEM_ATOM_UDEF_STEREO_COUNT>
0

> <PUBCHEM_BOND_DEF_STEREO_COUNT>
0

> <PUBCHEM_BOND_UDEF_STEREO_COUNT>
0

> <PUBCHEM_ISOTOPIC_ATOM_COUNT>
0

> <PUBCHEM_COMPONENT_COUNT>
1

> <PUBCHEM_CACTVS_TAUTO_COUNT>
1

> <PUBCHEM_CONFORMER_ID>
00ED671100000001

> <PUBCHEM_MMFF94_ENERGY>
72.143

> <PUBCHEM_FEATURE_SELFOVERLAP>
45.834

> <PUBCHEM_SHAPE_FINGERPRINT>
10366900 7 17275099518285472187
10411042 1 17763181745324986887
10498660 4 18412829083510686204
10763959 59 18186524311197010692
11089746 13 18259980488014266924
11135609 187 18271523092695634945
11315181 36 17418094347083726856
11961588 58 18260257526463600303
12236239 1 18040431114429113282
12403259 415 18200871893544821232
12422481 6 17385724703535208996
12633257 1 14129350589025766247
12788726 201 16915670176868064793
13103583 49 11097859549497313245
13224815 77 18409735036552781939
13288520 33 11167940269036475189
13583140 156 17458065983977729176
13631057 29 17988357191286577519
13782708 43 12247416562078298884
14790565 3 17767981835266246833
14950920 106 12036029945010189973
15183329 4 18411420592726751356
15196674 1 18341619209149338414
15788980 27 17676209086949914000
1601671 61 18409727365915251564
16945 1 18272083937888247515
17780758 139 11097851887296587375
18335252 98 18410577302016651847
18608769 82 18411139178101518739
19489759 90 17095524023773068113
19784866 240 12535343519594997073
200 152 15841557374920009858
20511986 3 18339909490174819458
20715895 44 18409449185336797164
21033648 29 18040710424479056272
21033650 10 16700369402212521488
21236236 1 18340770432958289262
21279426 13 18341902857627622486
21709351 56 18335703875167540228
21857420 4 12993818543485976164
22393880 68 17917138498323045335
22950370 63 9511465524368011766
23227448 37 18336549403708867645
23402539 116 18408602582847423628
23559900 14 18130779109585059680
23569914 152 16694153630619804548
25147074 1 17773881891605754995
2838139 119 18333444339812014220
335352 9 18411703163199847246
34934 24 18409165485060559707
350125 39 18270970162552606315
3737641 26 9366804978456986844
4340502 62 16805610235326820249
5104073 3 18261684670449024283
5283173 99 18410853257084752316
59755656 520 17385438843001386162
9981440 41 18334580165478221730

> <PUBCHEM_SHAPE_MULTIPOLES>
532.17
13.25
2.3
1.32
10.92
0.46
-0.52
-6.68
3.45
-0.7
0.41
-1.18
-0.04
0.28

> <PUBCHEM_SHAPE_SELFOVERLAP>
1168.37

> <PUBCHEM_SHAPE_VOLUME>
288.7

> <PUBCHEM_COORDINATE_TYPE>
2
5
10

$$$$
