92135690
  -OEChem-09122022583D

 42 43  0     1  0  0  0  0  0999 V2000
    0.4479   -0.1920    0.4437 O   0  0  0  0  0  0  0  0  0  0  0  0
    3.0234   -1.2197    1.0120 O   0  0  0  0  0  0  0  0  0  0  0  0
    0.4133    2.5751    0.3009 O   0  0  0  0  0  0  0  0  0  0  0  0
    3.0699    3.1393    1.1056 O   0  0  0  0  0  0  0  0  0  0  0  0
    5.1016   -0.4680   -1.7399 O   0  0  0  0  0  0  0  0  0  0  0  0
    5.0559   -2.1973   -0.2554 O   0  0  0  0  0  0  0  0  0  0  0  0
   -0.9147   -1.3621   -1.0096 O   0  0  0  0  0  0  0  0  0  0  0  0
   -6.0625    1.2635   -1.5654 O   0  0  0  0  0  0  0  0  0  0  0  0
    3.4182   -0.4232   -0.0993 C   0  0  1  0  0  0  0  0  0  0  0  0
    1.0869    0.4591   -0.6551 C   0  0  2  0  0  0  0  0  0  0  0  0
    2.2798   -0.3783   -1.1294 C   0  0  0  0  0  0  0  0  0  0  0  0
    3.8227    0.9770    0.3664 C   0  0  0  0  0  0  0  0  0  0  0  0
    1.5316    1.8586   -0.2216 C   0  0  2  0  0  0  0  0  0  0  0  0
    2.6279    1.8072    0.8446 C   0  0  2  0  0  0  0  0  0  0  0  0
    4.6003   -1.1451   -0.6781 C   0  0  0  0  0  0  0  0  0  0  0  0
   -0.5352   -1.0777    0.1153 C   0  0  0  0  0  0  0  0  0  0  0  0
   -1.0732   -1.6454    1.3724 C   0  0  0  0  0  0  0  0  0  0  0  0
   -2.3703   -1.4823    1.6692 C   0  0  0  0  0  0  0  0  0  0  0  0
   -3.3383   -0.7624    0.8229 C   0  0  0  0  0  0  0  0  0  0  0  0
   -4.4590   -1.4272    0.3249 C   0  0  0  0  0  0  0  0  0  0  0  0
   -3.1334    0.5834    0.5187 C   0  0  0  0  0  0  0  0  0  0  0  0
   -5.3746   -0.7463   -0.4773 C   0  0  0  0  0  0  0  0  0  0  0  0
   -4.0488    1.2643   -0.2837 C   0  0  0  0  0  0  0  0  0  0  0  0
   -5.1694    0.5995   -0.7817 C   0  0  0  0  0  0  0  0  0  0  0  0
    0.3701    0.5809   -1.4777 H   0  0  0  0  0  0  0  0  0  0  0  0
    1.9435   -1.4021   -1.3380 H   0  0  0  0  0  0  0  0  0  0  0  0
    2.6391    0.0429   -2.0769 H   0  0  0  0  0  0  0  0  0  0  0  0
    4.3312    1.5283   -0.4361 H   0  0  0  0  0  0  0  0  0  0  0  0
    4.5552    0.9145    1.1824 H   0  0  0  0  0  0  0  0  0  0  0  0
    1.8942    2.4247   -1.0888 H   0  0  0  0  0  0  0  0  0  0  0  0
    2.2276    1.4121    1.7857 H   0  0  0  0  0  0  0  0  0  0  0  0
    3.7127   -1.1554    1.6950 H   0  0  0  0  0  0  0  0  0  0  0  0
   -0.2724    2.5912   -0.3885 H   0  0  0  0  0  0  0  0  0  0  0  0
    3.7627    3.0894    1.7862 H   0  0  0  0  0  0  0  0  0  0  0  0
    5.8766   -0.9236   -2.1323 H   0  0  0  0  0  0  0  0  0  0  0  0
   -0.3905   -2.1493    2.0458 H   0  0  0  0  0  0  0  0  0  0  0  0
   -2.7669   -1.9093    2.5862 H   0  0  0  0  0  0  0  0  0  0  0  0
   -4.6316   -2.4762    0.5530 H   0  0  0  0  0  0  0  0  0  0  0  0
   -2.2750    1.1257    0.9075 H   0  0  0  0  0  0  0  0  0  0  0  0
   -6.2454   -1.2695   -0.8627 H   0  0  0  0  0  0  0  0  0  0  0  0
   -3.8789    2.3133   -0.5113 H   0  0  0  0  0  0  0  0  0  0  0  0
   -5.7642    2.1830   -1.6732 H   0  0  0  0  0  0  0  0  0  0  0  0
  1 10  1  0  0  0  0
  1 16  1  0  0  0  0
  2  9  1  0  0  0  0
  2 32  1  0  0  0  0
  3 13  1  0  0  0  0
  3 33  1  0  0  0  0
  4 14  1  0  0  0  0
  4 34  1  0  0  0  0
  5 15  1  0  0  0  0
  5 35  1  0  0  0  0
  6 15  2  0  0  0  0
  7 16  2  0  0  0  0
  8 24  1  0  0  0  0
  8 42  1  0  0  0  0
  9 11  1  0  0  0  0
  9 12  1  0  0  0  0
  9 15  1  0  0  0  0
 10 11  1  0  0  0  0
 10 13  1  0  0  0  0
 10 25  1  0  0  0  0
 11 26  1  0  0  0  0
 11 27  1  0  0  0  0
 12 14  1  0  0  0  0
 12 28  1  0  0  0  0
 12 29  1  0  0  0  0
 13 14  1  0  0  0  0
 13 30  1  0  0  0  0
 14 31  1  0  0  0  0
 16 17  1  0  0  0  0
 17 18  2  0  0  0  0
 17 36  1  0  0  0  0
 18 19  1  0  0  0  0
 18 37  1  0  0  0  0
 19 20  2  0  0  0  0
 19 21  1  0  0  0  0
 20 22  1  0  0  0  0
 20 38  1  0  0  0  0
 21 23  2  0  0  0  0
 21 39  1  0  0  0  0
 22 24  2  0  0  0  0
 22 40  1  0  0  0  0
 23 24  1  0  0  0  0
 23 41  1  0  0  0  0
M  END
> <PUBCHEM_COMPOUND_CID>
92135690

> <PUBCHEM_CONFORMER_RMSD>
0.8

> <PUBCHEM_CONFORMER_DIVERSEORDER>
1
19
6
79
3
107
95
9
63
108
10
50
68
67
119
32
92
25
36
100
17
55
112
101
116
33
72
24
31
106
122
49
23
45
47
93
73
102
60
56
22
74
57
5
34
113
91
85
58
81
110
75
38
105
97
7
62
52
117
99
41
59
77
11
28
118
69
65
39
29
78
53
26
61
44
87
46
43
104
121
42
20
4
15
115
37
114
30
96
120
111
21
18
86
84
76
80
35
94
88
89
14
13
66
8
83
40
48
103
54
12
64
82
109
27
90
2
16
51
98
71
70
123

> <PUBCHEM_MMFF94_PARTIAL_CHARGES>
33
1 -0.43
10 0.28
13 0.28
14 0.28
15 0.66
16 0.71
17 -0.14
18 -0.18
19 0.03
2 -0.68
20 -0.15
21 -0.15
22 -0.15
23 -0.15
24 0.08
3 -0.68
32 0.4
33 0.4
34 0.4
35 0.5
36 0.15
37 0.15
38 0.15
39 0.15
4 -0.68
40 0.15
41 0.15
42 0.45
5 -0.65
6 -0.57
7 -0.57
8 -0.53
9 0.34

> <PUBCHEM_EFFECTIVE_ROTOR_COUNT>
6.2

> <PUBCHEM_PHARMACOPHORE_FEATURES>
13
1 2 acceptor
1 2 donor
1 3 acceptor
1 3 donor
1 4 acceptor
1 4 donor
1 5 acceptor
1 6 acceptor
1 7 acceptor
1 8 donor
3 5 6 15 anion
6 19 20 21 22 23 24 rings
6 9 10 11 12 13 14 rings

> <PUBCHEM_HEAVY_ATOM_COUNT>
24

> <PUBCHEM_ATOM_DEF_STEREO_COUNT>
4

> <PUBCHEM_ATOM_UDEF_STEREO_COUNT>
0

> <PUBCHEM_BOND_DEF_STEREO_COUNT>
1

> <PUBCHEM_BOND_UDEF_STEREO_COUNT>
0

> <PUBCHEM_ISOTOPIC_ATOM_COUNT>
0

> <PUBCHEM_COMPONENT_COUNT>
1

> <PUBCHEM_CACTVS_TAUTO_COUNT>
4

> <PUBCHEM_CONFORMER_ID>
057DE10A00000001

> <PUBCHEM_MMFF94_ENERGY>
64.4076

> <PUBCHEM_FEATURE_SELFOVERLAP>
66.049

> <PUBCHEM_SHAPE_FINGERPRINT>
11089746 13 18409439302231868506
11545043 162 17895204336818762915
11796584 16 17748834007962006938
12166972 35 17203330009205147810
12403259 415 18260551151823800009
12403260 363 17988928864006716889
12616971 3 17203621401741626643
12760667 363 18194410987807409946
12788726 201 18190462654019581232
128620 24 11023830556532498099
13134695 92 17989492947874228776
13583140 156 18268718392287058811
14251764 38 18412544336307674497
14347329 18 17023455336046086165
14573314 32 18187368739609615647
15238133 3 17385714803324380512
15788980 27 16128381445555832207
1601671 61 16877943836637373430
17349148 13 16558480741676738238
17492 89 18197498634868690383
17834072 8 18408042892267894719
18222031 100 17774731874787920822
192875 21 17131838672324626001
200 152 17561368374647084859
20645477 70 18202290233753966534
20832881 197 18335700499328637218
21033648 29 17894910759019792225
21065201 7 17895194462773254459
21279426 13 18261671476467453551
21521239 73 18272355504512530647
221357 26 18410009940614547557
2215653 11 18409166597494006407
22289505 5 18410295822190748276
22393880 68 18333723620635046311
23402539 116 14548739469772373875
23559900 14 18335138721605790889
268830 7 17845674645175231635
2838139 119 18339916018847090501
3004659 81 17822296735079325290
351380 180 18411417332567070233
4325135 7 12679454296359911339
437815 12 18269843030190882622
439807 62 17130690851870303303
495365 180 18342450491168230666
508706 21 17894904153539257285
57724786 102 18269292294671063025
59755656 215 18187923920452586335
6328613 192 18040445394974041244
633830 44 17604146029645234703
9709674 26 18264210399234847843

> <PUBCHEM_SHAPE_MULTIPOLES>
446.95
12.55
2.42
1.33
6.13
1.15
0.03
-0.75
4.16
-1.45
-0.67
0.03
-0.12
1.99

> <PUBCHEM_SHAPE_SELFOVERLAP>
948.666

> <PUBCHEM_SHAPE_VOLUME>
244.7

> <PUBCHEM_COORDINATE_TYPE>
2
5
10

$$$$
