70698280
  -OEChem-09022009463D

 69 73  0     1  0  0  0  0  0999 V2000
   -3.2859   -0.6619    0.1690 O   0  0  0  0  0  0  0  0  0  0  0  0
   -4.0171   -2.8430   -0.4138 O   0  0  0  0  0  0  0  0  0  0  0  0
   -2.9485    2.9973    0.2151 O   0  0  0  0  0  0  0  0  0  0  0  0
   -2.3695   -2.6105   -2.7571 O   0  0  0  0  0  0  0  0  0  0  0  0
    0.0147   -2.9948   -1.3742 O   0  0  0  0  0  0  0  0  0  0  0  0
   -0.9683   -4.4809    0.8554 O   0  0  0  0  0  0  0  0  0  0  0  0
   -6.5845    2.7857   -0.1692 O   0  0  0  0  0  0  0  0  0  0  0  0
   -5.8175    0.2085   -0.0417 O   0  0  0  0  0  0  0  0  0  0  0  0
   -1.1232   -0.0883    2.1556 O   0  0  0  0  0  0  0  0  0  0  0  0
   -1.2474    3.0077   -1.4735 O   0  0  0  0  0  0  0  0  0  0  0  0
    2.8867    0.9935   -0.3294 O   0  0  0  0  0  0  0  0  0  0  0  0
    1.1985   -1.1336    2.7078 O   0  0  0  0  0  0  0  0  0  0  0  0
    7.9327    2.3287   -0.1585 O   0  0  0  0  0  0  0  0  0  0  0  0
    9.0879   -0.0833   -0.9176 O   0  0  0  0  0  0  0  0  0  0  0  0
   -3.4533   -1.6116   -0.8780 C   0  0  2  0  0  0  0  0  0  0  0  0
   -2.1138   -1.8595   -1.5692 C   0  0  1  0  0  0  0  0  0  0  0  0
   -3.4608    0.6666   -0.3020 C   0  0  2  0  0  0  0  0  0  0  0  0
   -1.1634   -2.6357   -0.6559 C   0  0  1  0  0  0  0  0  0  0  0  0
   -1.8320   -3.9021   -0.1199 C   0  0  2  0  0  0  0  0  0  0  0  0
   -2.6569    1.6381    0.5707 C   0  0  1  0  0  0  0  0  0  0  0  0
   -3.1885   -3.5564    0.5097 C   0  0  2  0  0  0  0  0  0  0  0  0
   -4.3191    3.3401    0.4497 C   0  0  2  0  0  0  0  0  0  0  0  0
   -5.2287    2.5112   -0.4571 C   0  0  1  0  0  0  0  0  0  0  0  0
   -4.9315    1.0408   -0.2229 C   0  0  0  0  0  0  0  0  0  0  0  0
   -1.1915    1.4524    0.3512 C   0  0  0  0  0  0  0  0  0  0  0  0
   -3.9598   -4.8051    0.9280 C   0  0  0  0  0  0  0  0  0  0  0  0
   -4.4693    4.8336    0.1810 C   0  0  0  0  0  0  0  0  0  0  0  0
   -0.4666    0.5814    1.1655 C   0  0  0  0  0  0  0  0  0  0  0  0
   -0.5510    2.1537   -0.6713 C   0  0  0  0  0  0  0  0  0  0  0  0
    0.9035    0.4170    0.9490 C   0  0  0  0  0  0  0  0  0  0  0  0
    0.8176    1.9869   -0.8843 C   0  0  0  0  0  0  0  0  0  0  0  0
    1.5447    1.1163   -0.0721 C   0  0  0  0  0  0  0  0  0  0  0  0
    1.6948   -0.4926    1.7916 C   0  0  0  0  0  0  0  0  0  0  0  0
    3.1331   -0.5924    1.4719 C   0  0  0  0  0  0  0  0  0  0  0  0
    3.6334    0.1290    0.4562 C   0  0  0  0  0  0  0  0  0  0  0  0
    5.0648    0.0762    0.0966 C   0  0  0  0  0  0  0  0  0  0  0  0
    5.8368    1.2373    0.1374 C   0  0  0  0  0  0  0  0  0  0  0  0
    5.6446   -1.1339   -0.2841 C   0  0  0  0  0  0  0  0  0  0  0  0
    7.1889    1.1882   -0.2024 C   0  0  0  0  0  0  0  0  0  0  0  0
    6.9965   -1.1829   -0.6241 C   0  0  0  0  0  0  0  0  0  0  0  0
    7.7687   -0.0219   -0.5832 C   0  0  0  0  0  0  0  0  0  0  0  0
   -4.1808   -1.2454   -1.6130 H   0  0  0  0  0  0  0  0  0  0  0  0
   -1.6301   -0.9266   -1.8780 H   0  0  0  0  0  0  0  0  0  0  0  0
   -3.1634    0.7706   -1.3548 H   0  0  0  0  0  0  0  0  0  0  0  0
   -0.8430   -2.0150    0.1844 H   0  0  0  0  0  0  0  0  0  0  0  0
   -1.9491   -4.6326   -0.9290 H   0  0  0  0  0  0  0  0  0  0  0  0
   -2.9009    1.5131    1.6336 H   0  0  0  0  0  0  0  0  0  0  0  0
   -3.0459   -2.9427    1.4088 H   0  0  0  0  0  0  0  0  0  0  0  0
   -4.5585    3.1630    1.5068 H   0  0  0  0  0  0  0  0  0  0  0  0
   -5.0336    2.7245   -1.5147 H   0  0  0  0  0  0  0  0  0  0  0  0
   -3.4078   -5.3887    1.6706 H   0  0  0  0  0  0  0  0  0  0  0  0
   -4.9302   -4.5285    1.3545 H   0  0  0  0  0  0  0  0  0  0  0  0
   -4.1676   -5.4438    0.0624 H   0  0  0  0  0  0  0  0  0  0  0  0
   -4.2106    5.0722   -0.8567 H   0  0  0  0  0  0  0  0  0  0  0  0
   -3.7811    5.4043    0.8141 H   0  0  0  0  0  0  0  0  0  0  0  0
   -5.4883    5.1796    0.3778 H   0  0  0  0  0  0  0  0  0  0  0  0
   -2.9273   -2.0633   -3.3359 H   0  0  0  0  0  0  0  0  0  0  0  0
    0.4243   -2.1720   -1.6921 H   0  0  0  0  0  0  0  0  0  0  0  0
   -0.8795   -3.8513    1.5912 H   0  0  0  0  0  0  0  0  0  0  0  0
   -7.1254    2.2974   -0.8131 H   0  0  0  0  0  0  0  0  0  0  0  0
    1.3216    2.5306   -1.6795 H   0  0  0  0  0  0  0  0  0  0  0  0
   -0.5245   -0.6939    2.6179 H   0  0  0  0  0  0  0  0  0  0  0  0
   -0.6397    3.4011   -2.1229 H   0  0  0  0  0  0  0  0  0  0  0  0
    3.7399   -1.2533    2.0808 H   0  0  0  0  0  0  0  0  0  0  0  0
    5.3876    2.1821    0.4362 H   0  0  0  0  0  0  0  0  0  0  0  0
    5.0582   -2.0486   -0.3269 H   0  0  0  0  0  0  0  0  0  0  0  0
    7.4353   -2.1321   -0.9201 H   0  0  0  0  0  0  0  0  0  0  0  0
    7.3660    3.0664    0.1255 H   0  0  0  0  0  0  0  0  0  0  0  0
    9.3127   -0.9997   -1.1534 H   0  0  0  0  0  0  0  0  0  0  0  0
  1 15  1  0  0  0  0
  1 17  1  0  0  0  0
  2 15  1  0  0  0  0
  2 21  1  0  0  0  0
  3 20  1  0  0  0  0
  3 22  1  0  0  0  0
  4 16  1  0  0  0  0
  4 57  1  0  0  0  0
  5 18  1  0  0  0  0
  5 58  1  0  0  0  0
  6 19  1  0  0  0  0
  6 59  1  0  0  0  0
  7 23  1  0  0  0  0
  7 60  1  0  0  0  0
  8 24  2  0  0  0  0
  9 28  1  0  0  0  0
  9 62  1  0  0  0  0
 10 29  1  0  0  0  0
 10 63  1  0  0  0  0
 11 32  1  0  0  0  0
 11 35  1  0  0  0  0
 12 33  2  0  0  0  0
 13 39  1  0  0  0  0
 13 68  1  0  0  0  0
 14 41  1  0  0  0  0
 14 69  1  0  0  0  0
 15 16  1  0  0  0  0
 15 42  1  0  0  0  0
 16 18  1  0  0  0  0
 16 43  1  0  0  0  0
 17 20  1  0  0  0  0
 17 24  1  0  0  0  0
 17 44  1  0  0  0  0
 18 19  1  0  0  0  0
 18 45  1  0  0  0  0
 19 21  1  0  0  0  0
 19 46  1  0  0  0  0
 20 25  1  0  0  0  0
 20 47  1  0  0  0  0
 21 26  1  0  0  0  0
 21 48  1  0  0  0  0
 22 23  1  0  0  0  0
 22 27  1  0  0  0  0
 22 49  1  0  0  0  0
 23 24  1  0  0  0  0
 23 50  1  0  0  0  0
 25 28  2  0  0  0  0
 25 29  1  0  0  0  0
 26 51  1  0  0  0  0
 26 52  1  0  0  0  0
 26 53  1  0  0  0  0
 27 54  1  0  0  0  0
 27 55  1  0  0  0  0
 27 56  1  0  0  0  0
 28 30  1  0  0  0  0
 29 31  2  0  0  0  0
 30 32  2  0  0  0  0
 30 33  1  0  0  0  0
 31 32  1  0  0  0  0
 31 61  1  0  0  0  0
 33 34  1  0  0  0  0
 34 35  2  0  0  0  0
 34 64  1  0  0  0  0
 35 36  1  0  0  0  0
 36 37  2  0  0  0  0
 36 38  1  0  0  0  0
 37 39  1  0  0  0  0
 37 65  1  0  0  0  0
 38 40  2  0  0  0  0
 38 66  1  0  0  0  0
 39 41  2  0  0  0  0
 40 41  1  0  0  0  0
 40 67  1  0  0  0  0
M  END
> <PUBCHEM_COMPOUND_CID>
70698280

> <PUBCHEM_CONFORMER_RMSD>
1

> <PUBCHEM_CONFORMER_DIVERSEORDER>
1
21
22
31
13
9
33
12
24
28
27
26
23
30
29
11
20
10
25
19
18
15
17
7
32
4
14
2
6
16
3
8
5

> <PUBCHEM_MMFF94_PARTIAL_CHARGES>
52
1 -0.56
10 -0.53
11 -0.16
12 -0.57
13 -0.53
14 -0.53
15 0.56
16 0.28
17 0.34
18 0.28
19 0.28
2 -0.56
20 0.42
21 0.28
22 0.28
23 0.34
24 0.45
25 -0.14
28 0.08
29 0.08
3 -0.56
30 0.09
31 -0.15
32 0.08
33 0.47
34 -0.14
35 0.05
36 0.03
37 -0.15
38 -0.15
39 0.08
4 -0.68
40 -0.15
41 0.08
5 -0.68
57 0.4
58 0.4
59 0.4
6 -0.68
60 0.4
61 0.15
62 0.45
63 0.45
64 0.15
65 0.15
66 0.15
67 0.15
68 0.45
69 0.45
7 -0.68
8 -0.57
9 -0.53

> <PUBCHEM_EFFECTIVE_ROTOR_COUNT>
6.2

> <PUBCHEM_PHARMACOPHORE_FEATURES>
23
1 1 acceptor
1 10 donor
1 11 acceptor
1 12 acceptor
1 13 donor
1 14 donor
1 2 acceptor
1 3 acceptor
1 4 acceptor
1 4 donor
1 5 acceptor
1 5 donor
1 6 acceptor
1 6 donor
1 7 acceptor
1 7 donor
1 8 acceptor
1 9 donor
6 11 30 32 33 34 35 rings
6 2 15 16 18 19 21 rings
6 25 28 29 30 31 32 rings
6 3 17 20 22 23 24 rings
6 36 37 38 39 40 41 rings

> <PUBCHEM_HEAVY_ATOM_COUNT>
41

> <PUBCHEM_ATOM_DEF_STEREO_COUNT>
9

> <PUBCHEM_ATOM_UDEF_STEREO_COUNT>
0

> <PUBCHEM_BOND_DEF_STEREO_COUNT>
0

> <PUBCHEM_BOND_UDEF_STEREO_COUNT>
0

> <PUBCHEM_ISOTOPIC_ATOM_COUNT>
0

> <PUBCHEM_COMPONENT_COUNT>
1

> <PUBCHEM_CACTVS_TAUTO_COUNT>
810

> <PUBCHEM_CONFORMER_ID>
0436C52800000001

> <PUBCHEM_MMFF94_ENERGY>
119.0288

> <PUBCHEM_FEATURE_SELFOVERLAP>
116.843

> <PUBCHEM_SHAPE_FINGERPRINT>
10165383 225 18131073680776976801
10190206 1 18187364381183343154
10940486 97 18333734649578865229
11007060 377 18343863307612045161
11524674 6 17489581238625508428
117089 54 17903924705094259642
12522641 33 18267020558389270725
13690498 29 18200588223845135655
13757389 114 18411698760273247845
14790565 3 18194117409090256153
14840074 17 17968375641409022276
14856354 85 18341896307153532765
15064986 266 18412267272578199502
15230672 131 18267303132687834990
15274700 242 17895458259933730410
15276724 80 18197501929640667682
15297060 5 18272654528187581619
15361156 5 18200870789975512100
15439362 3 18051133588746861417
15444296 8 18127131003177110679
15890870 6 18337387150840930733
15927050 60 18269832026500735007
18681886 176 18412538795298754849
20505436 4 17968375637509395681
20609170 92 18131082507071634798
21772528 278 17677062252165017090
21792965 302 17751629086187469428
23516275 137 17975996279482020594
23559900 14 18060128890683977120
23576562 1 18262248832448685100
24893992 56 9943223971790300205
249057 3 18413670201706936052
4017518 198 18130505236652958247
4058900 60 17982736268659545361
4073 2 18411419536333595020
44280117 145 18337957908954835412
4625314 4 18413393129994512916
5265222 85 18342736321289349320
563151 97 18122336888215574989
5912855 24 18260259746714461674
6009941 240 18342177765451410470
70634741 139 18270966868550028176
77296 10 18269839877764216276
9896288 288 18337680724439743217

> <PUBCHEM_SHAPE_MULTIPOLES>
761.59
17.84
5.54
1.5
40.14
3.22
-0.2
-8.1
3.86
-11.61
0.17
-0.14
0.87
-0.22

> <PUBCHEM_SHAPE_SELFOVERLAP>
1675.091

> <PUBCHEM_SHAPE_VOLUME>
405.5

> <PUBCHEM_COORDINATE_TYPE>
2
5
10

$$$$
