44258219
  -OEChem-09022009463D

 72 76  0     1  0  0  0  0  0999 V2000
   -3.6197   -0.8811   -0.6648 O   0  0  0  0  0  0  0  0  0  0  0  0
   -1.8682   -1.5182    0.7603 O   0  0  0  0  0  0  0  0  0  0  0  0
   -3.6358    2.6472    0.3480 O   0  0  0  0  0  0  0  0  0  0  0  0
   -1.9051   -2.6525   -1.8822 O   0  0  0  0  0  0  0  0  0  0  0  0
   -3.0200   -4.9645    0.7079 O   0  0  0  0  0  0  0  0  0  0  0  0
    0.1967   -3.4295   -0.0394 O   0  0  0  0  0  0  0  0  0  0  0  0
   -7.2437    2.0267    0.4475 O   0  0  0  0  0  0  0  0  0  0  0  0
   -6.2261   -0.3294   -0.3627 O   0  0  0  0  0  0  0  0  0  0  0  0
   -1.5299    0.4269   -2.3647 O   0  0  0  0  0  0  0  0  0  0  0  0
   -1.8631    2.3038    2.0099 O   0  0  0  0  0  0  0  0  0  0  0  0
    2.4100    1.0753    0.3704 O   0  0  0  0  0  0  0  0  0  0  0  0
    0.8623   -0.2207   -3.1686 O   0  0  0  0  0  0  0  0  0  0  0  0
    6.8409   -0.9601    2.2407 O   0  0  0  0  0  0  0  0  0  0  0  0
    8.6889    0.4128    0.6824 O   0  0  0  0  0  0  0  0  0  0  0  0
   -3.0604   -1.9452    0.1012 C   0  0  2  0  0  0  0  0  0  0  0  0
   -2.7594   -3.1189   -0.8361 C   0  0  2  0  0  0  0  0  0  0  0  0
   -2.0679   -4.2677   -0.0923 C   0  0  1  0  0  0  0  0  0  0  0  0
   -3.9343    0.2322    0.1504 C   0  0  1  0  0  0  0  0  0  0  0  0
   -0.9149   -3.7665    0.7899 C   0  0  2  0  0  0  0  0  0  0  0  0
   -3.2032    1.4786   -0.3634 C   0  0  2  0  0  0  0  0  0  0  0  0
   -1.3227   -2.5326    1.6127 C   0  0  1  0  0  0  0  0  0  0  0  0
   -5.0256    2.9263    0.1436 C   0  0  1  0  0  0  0  0  0  0  0  0
   -5.8772    1.7969    0.7233 C   0  0  2  0  0  0  0  0  0  0  0  0
   -5.4313    0.4872    0.0977 C   0  0  0  0  0  0  0  0  0  0  0  0
   -1.7022    1.3612   -0.1897 C   0  0  0  0  0  0  0  0  0  0  0  0
   -0.1450   -1.9143    2.3589 C   0  0  0  0  0  0  0  0  0  0  0  0
   -5.3276    4.2595    0.8197 C   0  0  0  0  0  0  0  0  0  0  0  0
   -0.9180    0.8316   -1.2153 C   0  0  0  0  0  0  0  0  0  0  0  0
   -1.1086    1.7849    1.0002 C   0  0  0  0  0  0  0  0  0  0  0  0
    0.4642    0.7293   -1.0417 C   0  0  0  0  0  0  0  0  0  0  0  0
    0.2723    1.6810    1.1698 C   0  0  0  0  0  0  0  0  0  0  0  0
    1.0588    1.1523    0.1458 C   0  0  0  0  0  0  0  0  0  0  0  0
    1.3169    0.1739   -2.1037 C   0  0  0  0  0  0  0  0  0  0  0  0
    2.7641    0.1161   -1.8149 C   0  0  0  0  0  0  0  0  0  0  0  0
    3.2180    0.5621   -0.6328 C   0  0  0  0  0  0  0  0  0  0  0  0
    4.6527    0.5209   -0.2854 C   0  0  0  0  0  0  0  0  0  0  0  0
    5.0802   -0.2067    0.8252 C   0  0  0  0  0  0  0  0  0  0  0  0
    5.5801    1.2096   -1.0673 C   0  0  0  0  0  0  0  0  0  0  0  0
    6.4354   -0.2458    1.1539 C   0  0  0  0  0  0  0  0  0  0  0  0
    6.9351    1.1706   -0.7384 C   0  0  0  0  0  0  0  0  0  0  0  0
    7.3628    0.4429    0.3721 C   0  0  0  0  0  0  0  0  0  0  0  0
    9.5702    1.1438   -0.1682 C   0  0  0  0  0  0  0  0  0  0  0  0
   -3.8002   -2.2551    0.8520 H   0  0  0  0  0  0  0  0  0  0  0  0
   -3.6924   -3.4553   -1.3031 H   0  0  0  0  0  0  0  0  0  0  0  0
   -3.7085    0.0622    1.2129 H   0  0  0  0  0  0  0  0  0  0  0  0
   -1.6779   -4.9814   -0.8283 H   0  0  0  0  0  0  0  0  0  0  0  0
   -0.5852   -4.5557    1.4759 H   0  0  0  0  0  0  0  0  0  0  0  0
   -3.4255    1.6462   -1.4258 H   0  0  0  0  0  0  0  0  0  0  0  0
   -2.0872   -2.8134    2.3486 H   0  0  0  0  0  0  0  0  0  0  0  0
   -5.2156    3.0441   -0.9317 H   0  0  0  0  0  0  0  0  0  0  0  0
   -5.7367    1.7117    1.8073 H   0  0  0  0  0  0  0  0  0  0  0  0
   -0.4819   -1.0569    2.9517 H   0  0  0  0  0  0  0  0  0  0  0  0
    0.6158   -1.5357    1.6691 H   0  0  0  0  0  0  0  0  0  0  0  0
    0.3209   -2.6398    3.0324 H   0  0  0  0  0  0  0  0  0  0  0  0
   -5.1238    4.2077    1.8950 H   0  0  0  0  0  0  0  0  0  0  0  0
   -6.3691    4.5605    0.6732 H   0  0  0  0  0  0  0  0  0  0  0  0
   -4.6796    5.0452    0.4159 H   0  0  0  0  0  0  0  0  0  0  0  0
   -1.7489   -3.3977   -2.4869 H   0  0  0  0  0  0  0  0  0  0  0  0
   -2.5570   -5.7031    1.1388 H   0  0  0  0  0  0  0  0  0  0  0  0
    0.4628   -4.2347   -0.5151 H   0  0  0  0  0  0  0  0  0  0  0  0
   -7.7541    1.3296    0.8939 H   0  0  0  0  0  0  0  0  0  0  0  0
    0.7399    2.0084    2.0950 H   0  0  0  0  0  0  0  0  0  0  0  0
   -0.8854    0.0585   -2.9875 H   0  0  0  0  0  0  0  0  0  0  0  0
   -1.2816    2.5386    2.7532 H   0  0  0  0  0  0  0  0  0  0  0  0
    3.4146   -0.2930   -2.5799 H   0  0  0  0  0  0  0  0  0  0  0  0
    4.3591   -0.7467    1.4353 H   0  0  0  0  0  0  0  0  0  0  0  0
    5.2646    1.7861   -1.9337 H   0  0  0  0  0  0  0  0  0  0  0  0
    7.5976    1.7301   -1.3898 H   0  0  0  0  0  0  0  0  0  0  0  0
    6.0642   -1.3690    2.6595 H   0  0  0  0  0  0  0  0  0  0  0  0
   10.5831    1.0091    0.2255 H   0  0  0  0  0  0  0  0  0  0  0  0
    9.3589    2.2182   -0.1406 H   0  0  0  0  0  0  0  0  0  0  0  0
    9.5701    0.7445   -1.1882 H   0  0  0  0  0  0  0  0  0  0  0  0
  1 15  1  0  0  0  0
  1 18  1  0  0  0  0
  2 15  1  0  0  0  0
  2 21  1  0  0  0  0
  3 20  1  0  0  0  0
  3 22  1  0  0  0  0
  4 16  1  0  0  0  0
  4 58  1  0  0  0  0
  5 17  1  0  0  0  0
  5 59  1  0  0  0  0
  6 19  1  0  0  0  0
  6 60  1  0  0  0  0
  7 23  1  0  0  0  0
  7 61  1  0  0  0  0
  8 24  2  0  0  0  0
  9 28  1  0  0  0  0
  9 63  1  0  0  0  0
 10 29  1  0  0  0  0
 10 64  1  0  0  0  0
 11 32  1  0  0  0  0
 11 35  1  0  0  0  0
 12 33  2  0  0  0  0
 13 39  1  0  0  0  0
 13 69  1  0  0  0  0
 14 41  1  0  0  0  0
 14 42  1  0  0  0  0
 15 16  1  0  0  0  0
 15 43  1  0  0  0  0
 16 17  1  0  0  0  0
 16 44  1  0  0  0  0
 17 19  1  0  0  0  0
 17 46  1  0  0  0  0
 18 20  1  0  0  0  0
 18 24  1  0  0  0  0
 18 45  1  0  0  0  0
 19 21  1  0  0  0  0
 19 47  1  0  0  0  0
 20 25  1  0  0  0  0
 20 48  1  0  0  0  0
 21 26  1  0  0  0  0
 21 49  1  0  0  0  0
 22 23  1  0  0  0  0
 22 27  1  0  0  0  0
 22 50  1  0  0  0  0
 23 24  1  0  0  0  0
 23 51  1  0  0  0  0
 25 28  2  0  0  0  0
 25 29  1  0  0  0  0
 26 52  1  0  0  0  0
 26 53  1  0  0  0  0
 26 54  1  0  0  0  0
 27 55  1  0  0  0  0
 27 56  1  0  0  0  0
 27 57  1  0  0  0  0
 28 30  1  0  0  0  0
 29 31  2  0  0  0  0
 30 32  2  0  0  0  0
 30 33  1  0  0  0  0
 31 32  1  0  0  0  0
 31 62  1  0  0  0  0
 33 34  1  0  0  0  0
 34 35  2  0  0  0  0
 34 65  1  0  0  0  0
 35 36  1  0  0  0  0
 36 37  2  0  0  0  0
 36 38  1  0  0  0  0
 37 39  1  0  0  0  0
 37 66  1  0  0  0  0
 38 40  2  0  0  0  0
 38 67  1  0  0  0  0
 39 41  2  0  0  0  0
 40 41  1  0  0  0  0
 40 68  1  0  0  0  0
 42 70  1  0  0  0  0
 42 71  1  0  0  0  0
 42 72  1  0  0  0  0
M  END
> <PUBCHEM_COMPOUND_CID>
44258219

> <PUBCHEM_CONFORMER_RMSD>
1

> <PUBCHEM_CONFORMER_DIVERSEORDER>
1
189
87
186
144
158
184
147
160
19
197
119
62
219
139
236
129
214
240
166
105
135
121
171
46
244
234
161
50
205
70
131
115
123
175
225
36
180
247
72
231
164
155
78
163
192
200
213
211
100
145
48
167
110
140
130
238
141
168
224
12
193
233
229
132
181
207
59
173
185
249
3
176
208
177
52
196
239
127
241
178
95
245
206
9
154
217
190
33
104
40
26
124
179
143
29
227
153
222
204
170
41
237
149
23
134
183
114
209
182
223
67
125
102
94
73
81
86
246
172
212
109
162
99
84
228
138
21
142
68
118
90
31
152
42
199
39
248
148
74
96
195
35
216
55
53
146
38
218
106
79
57
107
11
32
169
210
97
75
226
10
113
242
93
28
85
30
63
61
103
44
194
101
89
16
202
235
159
71
27
230
13
221
112
66
77
220
76
18
14
174
25
187
133
45
92
137
34
198
136
120
116
243
43
165
215
111
191
98
83
37
56
122
232
150
203
128
117
7
64
6
51
188
126
20
17
60
108
49
65
54
69
58
47
15
8
88
82
157
156
151
22
2
201
24
91
4
80
5

> <PUBCHEM_MMFF94_PARTIAL_CHARGES>
52
1 -0.56
10 -0.53
11 -0.16
12 -0.57
13 -0.53
14 -0.36
15 0.56
16 0.28
17 0.28
18 0.34
19 0.28
2 -0.56
20 0.42
21 0.28
22 0.28
23 0.34
24 0.45
25 -0.14
28 0.08
29 0.08
3 -0.56
30 0.09
31 -0.15
32 0.08
33 0.47
34 -0.14
35 0.05
36 0.03
37 -0.15
38 -0.15
39 0.08
4 -0.68
40 -0.15
41 0.08
42 0.28
5 -0.68
58 0.4
59 0.4
6 -0.68
60 0.4
61 0.4
62 0.15
63 0.45
64 0.45
65 0.15
66 0.15
67 0.15
68 0.15
69 0.45
7 -0.68
8 -0.57
9 -0.53

> <PUBCHEM_EFFECTIVE_ROTOR_COUNT>
7.2

> <PUBCHEM_PHARMACOPHORE_FEATURES>
23
1 1 acceptor
1 10 donor
1 11 acceptor
1 12 acceptor
1 13 donor
1 14 acceptor
1 2 acceptor
1 3 acceptor
1 4 acceptor
1 4 donor
1 5 acceptor
1 5 donor
1 6 acceptor
1 6 donor
1 7 acceptor
1 7 donor
1 8 acceptor
1 9 donor
6 11 30 32 33 34 35 rings
6 2 15 16 17 19 21 rings
6 25 28 29 30 31 32 rings
6 3 18 20 22 23 24 rings
6 36 37 38 39 40 41 rings

> <PUBCHEM_HEAVY_ATOM_COUNT>
42

> <PUBCHEM_ATOM_DEF_STEREO_COUNT>
5

> <PUBCHEM_ATOM_UDEF_STEREO_COUNT>
4

> <PUBCHEM_BOND_DEF_STEREO_COUNT>
0

> <PUBCHEM_BOND_UDEF_STEREO_COUNT>
0

> <PUBCHEM_ISOTOPIC_ATOM_COUNT>
0

> <PUBCHEM_COMPONENT_COUNT>
1

> <PUBCHEM_CACTVS_TAUTO_COUNT>
180

> <PUBCHEM_CONFORMER_ID>
02A353AB00000001

> <PUBCHEM_MMFF94_ENERGY>
129.8187

> <PUBCHEM_FEATURE_SELFOVERLAP>
116.842

> <PUBCHEM_SHAPE_FINGERPRINT>
10 15 17775560936630915472
10675989 125 17622738518021428337
11007060 377 18272660021609170961
12156800 1 16770942646794316319
12422481 6 17532927204102167003
12597179 24 18201163160978505358
12608794 3 16877949377329788734
12788726 201 17684398387520460503
12977781 61 17986979417196471998
14020679 6 18343579646523393296
14068700 675 18192429894922564934
14394314 77 18259984859890515288
14725015 67 18126002917469601523
14840074 17 17167859751456085840
14856354 85 18411982498539143564
14866123 147 18337390556322994899
15021287 119 16877946044250758924
15131766 46 14926513123570536166
15297060 5 18413388739351358138
15347590 135 18270418096627023865
15444296 121 18410296942840037556
15849732 13 17095525097293560461
15927050 60 18341333301925212311
19315958 150 18409172074115320254
21133665 82 18412266104115271990
23522609 53 17750818673879334820
23559900 14 18267860777771070584
249057 3 18334296482993796084
3383291 50 17561359612723929823
3411729 13 18119252762451970705
4073 2 18412830196956943710
4625314 4 18411985772322671956
5028188 123 18263093245068285148
5080951 261 18189319303607835054
5171179 24 17699842118425923816
5265222 85 18338803411109719696
563151 248 18113618967233030466
59755656 520 18335416867940415405
6669772 16 18270687446198770815
6691757 9 18411143541307964411
7226269 152 18272936007491102713
9896288 288 18410862045262592915

> <PUBCHEM_SHAPE_MULTIPOLES>
782.17
18.97
4.55
1.9
39.69
4.86
0.53
-12.17
-4.21
-9.29
-1.31
0.9
0.38
-1.76

> <PUBCHEM_SHAPE_SELFOVERLAP>
1713.816

> <PUBCHEM_SHAPE_VOLUME>
418.5

> <PUBCHEM_COORDINATE_TYPE>
2
5
10

$$$$
