503734
  -OEChem-09022009443D

 68 72  0     1  0  0  0  0  0999 V2000
    3.2282    0.7082    0.2470 O   0  0  0  0  0  0  0  0  0  0  0  0
    4.1341    2.7443   -0.5687 O   0  0  0  0  0  0  0  0  0  0  0  0
    2.4815   -2.8749    0.5828 O   0  0  0  0  0  0  0  0  0  0  0  0
    2.1795    2.6016   -2.6708 O   0  0  0  0  0  0  0  0  0  0  0  0
    0.0591    3.3597   -1.0355 O   0  0  0  0  0  0  0  0  0  0  0  0
    1.4955    4.8230    0.9499 O   0  0  0  0  0  0  0  0  0  0  0  0
    6.0406   -3.1297   -0.2413 O   0  0  0  0  0  0  0  0  0  0  0  0
    5.5970   -0.4764   -0.2020 O   0  0  0  0  0  0  0  0  0  0  0  0
    0.6199   -2.7561   -0.8699 O   0  0  0  0  0  0  0  0  0  0  0  0
    1.2561    0.5333    2.5263 O   0  0  0  0  0  0  0  0  0  0  0  0
   -3.0846   -0.0830    0.7282 O   0  0  0  0  0  0  0  0  0  0  0  0
   -1.8043   -3.0208   -1.7875 O   0  0  0  0  0  0  0  0  0  0  0  0
   -9.2760    1.0811    0.1926 O   0  0  0  0  0  0  0  0  0  0  0  0
    3.3708    1.5724   -0.8750 C   0  0  2  0  0  0  0  0  0  0  0  0
    1.9922    1.9529   -1.4120 C   0  0  1  0  0  0  0  0  0  0  0  0
    3.1890   -0.6554   -0.1488 C   0  0  2  0  0  0  0  0  0  0  0  0
    1.2691    2.8912   -0.4442 C   0  0  1  0  0  0  0  0  0  0  0  0
    2.1491    4.0881   -0.0821 C   0  0  2  0  0  0  0  0  0  0  0  0
    2.3946   -1.4731    0.8769 C   0  0  1  0  0  0  0  0  0  0  0  0
    3.5246    3.6053    0.3986 C   0  0  2  0  0  0  0  0  0  0  0  0
    3.8222   -3.3694    0.6769 C   0  0  2  0  0  0  0  0  0  0  0  0
    4.6998   -2.7082   -0.3858 C   0  0  1  0  0  0  0  0  0  0  0  0
    4.6052   -1.2020   -0.2192 C   0  0  0  0  0  0  0  0  0  0  0  0
    0.9426   -1.1215    0.8196 C   0  0  0  0  0  0  0  0  0  0  0  0
    4.4882    4.7654    0.6326 C   0  0  0  0  0  0  0  0  0  0  0  0
    3.7662   -4.8825    0.4961 C   0  0  0  0  0  0  0  0  0  0  0  0
    0.0951   -1.7883   -0.0659 C   0  0  0  0  0  0  0  0  0  0  0  0
    0.4392   -0.1246    1.6567 C   0  0  0  0  0  0  0  0  0  0  0  0
   -1.2595   -1.4503   -0.1080 C   0  0  0  0  0  0  0  0  0  0  0  0
   -0.9145    0.2099    1.6116 C   0  0  0  0  0  0  0  0  0  0  0  0
   -1.7641   -0.4549    0.7269 C   0  0  0  0  0  0  0  0  0  0  0  0
   -2.1778   -2.1364   -1.0296 C   0  0  0  0  0  0  0  0  0  0  0  0
   -3.5878   -1.6985   -0.9917 C   0  0  0  0  0  0  0  0  0  0  0  0
   -3.9514   -0.7218   -0.1455 C   0  0  0  0  0  0  0  0  0  0  0  0
   -5.3478   -0.2495   -0.0573 C   0  0  0  0  0  0  0  0  0  0  0  0
   -6.4035   -1.1243   -0.3250 C   0  0  0  0  0  0  0  0  0  0  0  0
   -5.6189    1.0750    0.2949 C   0  0  0  0  0  0  0  0  0  0  0  0
   -7.7222   -0.6774   -0.2413 C   0  0  0  0  0  0  0  0  0  0  0  0
   -6.9376    1.5220    0.3787 C   0  0  0  0  0  0  0  0  0  0  0  0
   -7.9894    0.6457    0.1107 C   0  0  0  0  0  0  0  0  0  0  0  0
    3.9472    1.0785   -1.6672 H   0  0  0  0  0  0  0  0  0  0  0  0
    1.3643    1.0743   -1.5943 H   0  0  0  0  0  0  0  0  0  0  0  0
    2.7550   -0.7734   -1.1509 H   0  0  0  0  0  0  0  0  0  0  0  0
    0.9891    2.3648    0.4718 H   0  0  0  0  0  0  0  0  0  0  0  0
    2.2429    4.7479   -0.9536 H   0  0  0  0  0  0  0  0  0  0  0  0
    2.7868   -1.3394    1.8926 H   0  0  0  0  0  0  0  0  0  0  0  0
    3.4259    3.0637    1.3484 H   0  0  0  0  0  0  0  0  0  0  0  0
    4.2114   -3.1661    1.6835 H   0  0  0  0  0  0  0  0  0  0  0  0
    4.3507   -2.9529   -1.3959 H   0  0  0  0  0  0  0  0  0  0  0  0
    4.6266    5.3492   -0.2840 H   0  0  0  0  0  0  0  0  0  0  0  0
    4.1380    5.4327    1.4252 H   0  0  0  0  0  0  0  0  0  0  0  0
    5.4768    4.3868    0.9152 H   0  0  0  0  0  0  0  0  0  0  0  0
    4.7556   -5.3387    0.5944 H   0  0  0  0  0  0  0  0  0  0  0  0
    3.1023   -5.3298    1.2439 H   0  0  0  0  0  0  0  0  0  0  0  0
    3.3537   -5.1439   -0.4847 H   0  0  0  0  0  0  0  0  0  0  0  0
    2.5873    1.9578   -3.2750 H   0  0  0  0  0  0  0  0  0  0  0  0
   -0.4826    2.5802   -1.2471 H   0  0  0  0  0  0  0  0  0  0  0  0
    1.9706    5.6633    1.0620 H   0  0  0  0  0  0  0  0  0  0  0  0
    6.5491   -2.7468   -0.9764 H   0  0  0  0  0  0  0  0  0  0  0  0
   -1.3043    0.9876    2.2636 H   0  0  0  0  0  0  0  0  0  0  0  0
    1.5764   -2.6456   -0.9774 H   0  0  0  0  0  0  0  0  0  0  0  0
    2.1672    0.5385    2.1921 H   0  0  0  0  0  0  0  0  0  0  0  0
   -4.2648   -2.1876   -1.6822 H   0  0  0  0  0  0  0  0  0  0  0  0
   -6.2382   -2.1675   -0.5808 H   0  0  0  0  0  0  0  0  0  0  0  0
   -4.8186    1.7817    0.5008 H   0  0  0  0  0  0  0  0  0  0  0  0
   -8.5330   -1.3709   -0.4477 H   0  0  0  0  0  0  0  0  0  0  0  0
   -7.1395    2.5542    0.6515 H   0  0  0  0  0  0  0  0  0  0  0  0
   -9.8726    0.3443   -0.0249 H   0  0  0  0  0  0  0  0  0  0  0  0
  1 14  1  0  0  0  0
  1 16  1  0  0  0  0
  2 14  1  0  0  0  0
  2 20  1  0  0  0  0
  3 19  1  0  0  0  0
  3 21  1  0  0  0  0
  4 15  1  0  0  0  0
  4 56  1  0  0  0  0
  5 17  1  0  0  0  0
  5 57  1  0  0  0  0
  6 18  1  0  0  0  0
  6 58  1  0  0  0  0
  7 22  1  0  0  0  0
  7 59  1  0  0  0  0
  8 23  2  0  0  0  0
  9 27  1  0  0  0  0
  9 61  1  0  0  0  0
 10 28  1  0  0  0  0
 10 62  1  0  0  0  0
 11 31  1  0  0  0  0
 11 34  1  0  0  0  0
 12 32  2  0  0  0  0
 13 40  1  0  0  0  0
 13 68  1  0  0  0  0
 14 15  1  0  0  0  0
 14 41  1  0  0  0  0
 15 17  1  0  0  0  0
 15 42  1  0  0  0  0
 16 19  1  0  0  0  0
 16 23  1  0  0  0  0
 16 43  1  0  0  0  0
 17 18  1  0  0  0  0
 17 44  1  0  0  0  0
 18 20  1  0  0  0  0
 18 45  1  0  0  0  0
 19 24  1  0  0  0  0
 19 46  1  0  0  0  0
 20 25  1  0  0  0  0
 20 47  1  0  0  0  0
 21 22  1  0  0  0  0
 21 26  1  0  0  0  0
 21 48  1  0  0  0  0
 22 23  1  0  0  0  0
 22 49  1  0  0  0  0
 24 27  2  0  0  0  0
 24 28  1  0  0  0  0
 25 50  1  0  0  0  0
 25 51  1  0  0  0  0
 25 52  1  0  0  0  0
 26 53  1  0  0  0  0
 26 54  1  0  0  0  0
 26 55  1  0  0  0  0
 27 29  1  0  0  0  0
 28 30  2  0  0  0  0
 29 31  2  0  0  0  0
 29 32  1  0  0  0  0
 30 31  1  0  0  0  0
 30 60  1  0  0  0  0
 32 33  1  0  0  0  0
 33 34  2  0  0  0  0
 33 63  1  0  0  0  0
 34 35  1  0  0  0  0
 35 36  2  0  0  0  0
 35 37  1  0  0  0  0
 36 38  1  0  0  0  0
 36 64  1  0  0  0  0
 37 39  2  0  0  0  0
 37 65  1  0  0  0  0
 38 40  2  0  0  0  0
 38 66  1  0  0  0  0
 39 40  1  0  0  0  0
 39 67  1  0  0  0  0
M  END
> <PUBCHEM_COMPOUND_CID>
503734

> <PUBCHEM_CONFORMER_RMSD>
1

> <PUBCHEM_CONFORMER_DIVERSEORDER>
1
10
9
6
7
2
11
8
4
3
5

> <PUBCHEM_MMFF94_PARTIAL_CHARGES>
51
1 -0.56
10 -0.53
11 -0.16
12 -0.57
13 -0.53
14 0.56
15 0.28
16 0.34
17 0.28
18 0.28
19 0.42
2 -0.56
20 0.28
21 0.28
22 0.34
23 0.45
24 -0.14
27 0.08
28 0.08
29 0.09
3 -0.56
30 -0.15
31 0.08
32 0.47
33 -0.14
34 0.05
35 0.03
36 -0.15
37 -0.15
38 -0.15
39 -0.15
4 -0.68
40 0.08
5 -0.68
56 0.4
57 0.4
58 0.4
59 0.4
6 -0.68
60 0.15
61 0.45
62 0.45
63 0.15
64 0.15
65 0.15
66 0.15
67 0.15
68 0.45
7 -0.68
8 -0.57
9 -0.53

> <PUBCHEM_EFFECTIVE_ROTOR_COUNT>
6.2

> <PUBCHEM_PHARMACOPHORE_FEATURES>
22
1 1 acceptor
1 10 donor
1 11 acceptor
1 12 acceptor
1 13 donor
1 2 acceptor
1 3 acceptor
1 4 acceptor
1 4 donor
1 5 acceptor
1 5 donor
1 6 acceptor
1 6 donor
1 7 acceptor
1 7 donor
1 8 acceptor
1 9 donor
6 11 29 31 32 33 34 rings
6 2 14 15 17 18 20 rings
6 24 27 28 29 30 31 rings
6 3 16 19 21 22 23 rings
6 35 36 37 38 39 40 rings

> <PUBCHEM_HEAVY_ATOM_COUNT>
40

> <PUBCHEM_ATOM_DEF_STEREO_COUNT>
9

> <PUBCHEM_ATOM_UDEF_STEREO_COUNT>
0

> <PUBCHEM_BOND_DEF_STEREO_COUNT>
0

> <PUBCHEM_BOND_UDEF_STEREO_COUNT>
0

> <PUBCHEM_ISOTOPIC_ATOM_COUNT>
0

> <PUBCHEM_COMPONENT_COUNT>
1

> <PUBCHEM_CACTVS_TAUTO_COUNT>
285

> <PUBCHEM_CONFORMER_ID>
0007AFB600000001

> <PUBCHEM_MMFF94_ENERGY>
120.6221

> <PUBCHEM_FEATURE_SELFOVERLAP>
111.761

> <PUBCHEM_SHAPE_FINGERPRINT>
10050765 1 18339078319688472883
10411042 1 18120935002062725634
10673678 19 18342463685724553447
10675989 125 18339923839239264264
10721379 63 18412550920338752786
10951579 204 14907081283538900729
11115154 58 18265906760813531976
11456790 92 17967811604886573043
11621639 179 18334293154077748164
11828422 8 17414979533711417296
1200032 147 16951981771708963380
12107698 1 18187927219045108359
12166972 35 18343018848717664139
12925494 130 18263646328485015611
14068700 675 18201162036298389080
14117953 113 18272376330255119766
15001296 14 18336825415962541577
15183329 4 17988936582706987025
15400415 2 17905888437435938053
15439362 3 18266178529781695560
15840311 113 18335139800533957213
16090146 7 17845952778842303083
17899979 129 18336833116548707764
18335252 114 18409722942415305229
19301679 30 17832417606295697794
20511986 3 17630888411543678100
20715895 44 18272374204230178077
21133410 90 17559373783171899577
21298829 104 18266740366800913389
21344244 78 18118386377143474210
22122407 14 18410586076354788977
23522609 53 17845393149504679137
23559900 14 18408881837469078011
23569914 2 17392145868912090165
24771293 8 18199446910102495418
249057 3 18410294687924301807
3004659 81 18201718414345692499
4144715 1 18114472249145531667
4516262 110 18192137408224792045
4625314 4 18335137576157732871
513532 50 18270693059589138764
5951187 136 18200886187127761612
70251023 43 17900259707080445714
9981440 41 17690275332941922018

> <PUBCHEM_SHAPE_MULTIPOLES>
746.88
17.23
5.97
1.39
41.58
3.53
0.06
0.42
0.37
-12.4
0.19
-0.58
0.35
-1.24

> <PUBCHEM_SHAPE_SELFOVERLAP>
1641.429

> <PUBCHEM_SHAPE_VOLUME>
398

> <PUBCHEM_COORDINATE_TYPE>
2
5
10

$$$$
