11253808
  -OEChem-09022010093D

 29 31  0     0  0  0  0  0  0999 V2000
    2.4357    2.2374   -0.0001 O   0  0  0  0  0  0  0  0  0  0  0  0
   -0.1097    2.3191    0.0008 O   0  0  0  0  0  0  0  0  0  0  0  0
   -0.4645   -3.0131    0.0000 O   0  0  0  0  0  0  0  0  0  0  0  0
   -2.6564    2.5764   -0.0006 O   0  0  0  0  0  0  0  0  0  0  0  0
    1.0310    0.2647    0.0002 C   0  0  0  0  0  0  0  0  0  0  0  0
    0.9374   -1.1286   -0.0002 C   0  0  0  0  0  0  0  0  0  0  0  0
   -1.5095    0.4351   -0.0001 C   0  0  0  0  0  0  0  0  0  0  0  0
   -1.6029   -0.9582    0.0000 C   0  0  0  0  0  0  0  0  0  0  0  0
   -0.1891    1.0975   -0.0002 C   0  0  0  0  0  0  0  0  0  0  0  0
   -0.3828   -1.7910    0.0001 C   0  0  0  0  0  0  0  0  0  0  0  0
    2.2884    0.8803    0.0009 C   0  0  0  0  0  0  0  0  0  0  0  0
    3.4459    0.1013    0.0009 C   0  0  0  0  0  0  0  0  0  0  0  0
    2.1016   -1.9064   -0.0004 C   0  0  0  0  0  0  0  0  0  0  0  0
   -2.6735    1.2129   -0.0002 C   0  0  0  0  0  0  0  0  0  0  0  0
    3.3526   -1.2891    0.0000 C   0  0  0  0  0  0  0  0  0  0  0  0
   -2.8604   -1.5737   -0.0001 C   0  0  0  0  0  0  0  0  0  0  0  0
   -3.9247    0.5955    0.0000 C   0  0  0  0  0  0  0  0  0  0  0  0
   -4.0179   -0.7949    0.0002 C   0  0  0  0  0  0  0  0  0  0  0  0
    4.7988    0.7349   -0.0012 C   0  0  0  0  0  0  0  0  0  0  0  0
    2.0555   -2.9921   -0.0008 H   0  0  0  0  0  0  0  0  0  0  0  0
    4.2456   -1.9089   -0.0006 H   0  0  0  0  0  0  0  0  0  0  0  0
   -2.9599   -2.6558   -0.0001 H   0  0  0  0  0  0  0  0  0  0  0  0
   -4.8387    1.1838    0.0000 H   0  0  0  0  0  0  0  0  0  0  0  0
   -4.9930   -1.2733    0.0004 H   0  0  0  0  0  0  0  0  0  0  0  0
    4.9303    1.3486   -0.8985 H   0  0  0  0  0  0  0  0  0  0  0  0
    4.9266    1.3631    0.8866 H   0  0  0  0  0  0  0  0  0  0  0  0
    5.6008   -0.0111    0.0071 H   0  0  0  0  0  0  0  0  0  0  0  0
    1.5757    2.6821   -0.0040 H   0  0  0  0  0  0  0  0  0  0  0  0
   -3.5681    2.9148   -0.0007 H   0  0  0  0  0  0  0  0  0  0  0  0
  1 11  1  0  0  0  0
  1 28  1  0  0  0  0
  2  9  2  0  0  0  0
  3 10  2  0  0  0  0
  4 14  1  0  0  0  0
  4 29  1  0  0  0  0
  5  6  2  0  0  0  0
  5  9  1  0  0  0  0
  5 11  1  0  0  0  0
  6 10  1  0  0  0  0
  6 13  1  0  0  0  0
  7  8  2  0  0  0  0
  7  9  1  0  0  0  0
  7 14  1  0  0  0  0
  8 10  1  0  0  0  0
  8 16  1  0  0  0  0
 11 12  2  0  0  0  0
 12 15  1  0  0  0  0
 12 19  1  0  0  0  0
 13 15  2  0  0  0  0
 13 20  1  0  0  0  0
 14 17  2  0  0  0  0
 15 21  1  0  0  0  0
 16 18  2  0  0  0  0
 16 22  1  0  0  0  0
 17 18  1  0  0  0  0
 17 23  1  0  0  0  0
 18 24  1  0  0  0  0
 19 25  1  0  0  0  0
 19 26  1  0  0  0  0
 19 27  1  0  0  0  0
M  END
> <PUBCHEM_COMPOUND_CID>
11253808

> <PUBCHEM_CONFORMER_RMSD>
0.4

> <PUBCHEM_CONFORMER_DIVERSEORDER>
1

> <PUBCHEM_MMFF94_PARTIAL_CHARGES>
26
1 -0.53
10 0.4
11 0.08
12 -0.14
13 -0.15
14 0.08
15 -0.15
16 -0.15
17 -0.15
18 -0.15
19 0.14
2 -0.57
20 0.15
21 0.15
22 0.15
23 0.15
24 0.15
28 0.45
29 0.45
3 -0.57
4 -0.53
5 0.09
6 0.09
7 0.09
8 0.09
9 0.4

> <PUBCHEM_EFFECTIVE_ROTOR_COUNT>
0

> <PUBCHEM_PHARMACOPHORE_FEATURES>
7
1 1 donor
1 2 acceptor
1 3 acceptor
1 4 donor
6 5 6 11 12 13 15 rings
6 5 6 7 8 9 10 rings
6 7 8 14 16 17 18 rings

> <PUBCHEM_HEAVY_ATOM_COUNT>
19

> <PUBCHEM_ATOM_DEF_STEREO_COUNT>
0

> <PUBCHEM_ATOM_UDEF_STEREO_COUNT>
0

> <PUBCHEM_BOND_DEF_STEREO_COUNT>
0

> <PUBCHEM_BOND_UDEF_STEREO_COUNT>
0

> <PUBCHEM_ISOTOPIC_ATOM_COUNT>
0

> <PUBCHEM_COMPONENT_COUNT>
1

> <PUBCHEM_CACTVS_TAUTO_COUNT>
24

> <PUBCHEM_CONFORMER_ID>
00ABB83000000001

> <PUBCHEM_MMFF94_ENERGY>
60.9882

> <PUBCHEM_FEATURE_SELFOVERLAP>
35.562

> <PUBCHEM_SHAPE_FINGERPRINT>
10411042 1 17401769017837283818
10608611 8 18410853243951573217
10616163 171 18411703222337891455
10967382 1 18410573985214845606
11132069 177 18411695482722109747
11471102 20 18410570673879567022
12011746 2 18410855477355562598
12390115 104 18200049364326666304
12403814 3 17603299366836473997
13140716 1 18265897943124308515
13221675 6 18410855477387412126
13380535 76 18411419531237294190
138480 1 17618222802064371491
14790565 3 18338248140421069732
15042514 8 18265617773945009691
15196674 1 18410575054645923526
15309172 13 18411428323298859603
15442244 35 18266176128356757610
15536298 74 18342739589875486590
16945 1 18194683889200508167
18186145 218 18200602401468674738
193761 8 17834114525664851751
19591789 44 18410575067546961486
200 152 18131061650282838981
20510252 161 18343866597567367865
21267235 1 18410583906547393678
21501502 16 18337670815137482682
221490 88 18409175419515191730
2334 1 18410855464591992611
23402539 116 18342449382866299094
23463225 33 18408885122406291830
23559900 14 18126844903053143974
238 59 16816540291472162165
2748010 2 18410575063367727055
335352 9 17978510827929694303
34934 24 18410567388092454855
350125 39 18410015437898672081
43471831 8 18335136436604347603
474 4 17168996758491643900
5104073 3 18410573946786948762
58051976 378 18412543210476954173
69090 78 18341610442667497527
7364860 26 18342175592029114352
8809292 202 18261395619165768739
9709674 26 18411987970148506822

> <PUBCHEM_SHAPE_MULTIPOLES>
367.53
7.26
2.67
0.6
1.65
0.07
0
-1.06
0
-0.39
0
0
0.02
0

> <PUBCHEM_SHAPE_SELFOVERLAP>
834.36

> <PUBCHEM_SHAPE_VOLUME>
190.5

> <PUBCHEM_COORDINATE_TYPE>
2
5
10

$$$$
