160490
  -OEChem-09022009403D

 41 43  0     1  0  0  0  0  0999 V2000
    0.0279   -0.6052   -0.0632 O   0  0  0  0  0  0  0  0  0  0  0  0
    1.7031    3.1379   -0.1798 O   0  0  0  0  0  0  0  0  0  0  0  0
    4.0626    2.0874   -0.0547 O   0  0  0  0  0  0  0  0  0  0  0  0
    4.3003   -2.6677   -0.0113 O   0  0  0  0  0  0  0  0  0  0  0  0
   -6.2364   -0.4673    0.0982 O   0  0  0  0  0  0  0  0  0  0  0  0
   -0.6730    0.5294    0.4697 C   0  0  1  0  0  0  0  0  0  0  0  0
   -0.2913    1.8079   -0.2739 C   0  0  0  0  0  0  0  0  0  0  0  0
    2.0203    0.8011   -0.0651 C   0  0  0  0  0  0  0  0  0  0  0  0
    1.3896   -0.4465   -0.0486 C   0  0  0  0  0  0  0  0  0  0  0  0
    1.1947    2.0234   -0.1510 C   0  0  0  0  0  0  0  0  0  0  0  0
   -2.1603    0.2634    0.3704 C   0  0  0  0  0  0  0  0  0  0  0  0
    2.1573   -1.6118   -0.0454 C   0  0  0  0  0  0  0  0  0  0  0  0
    3.4146    0.8874   -0.0444 C   0  0  0  0  0  0  0  0  0  0  0  0
    4.1766   -0.2813   -0.0205 C   0  0  0  0  0  0  0  0  0  0  0  0
    3.5499   -1.5279   -0.0260 C   0  0  0  0  0  0  0  0  0  0  0  0
   -2.9313    0.1747    1.5289 C   0  0  0  0  0  0  0  0  0  0  0  0
   -2.7576    0.1064   -0.8799 C   0  0  0  0  0  0  0  0  0  0  0  0
    1.4944   -2.9532   -0.0511 C   0  0  0  0  0  0  0  0  0  0  0  0
    5.6704   -0.2011    0.0065 C   0  0  0  0  0  0  0  0  0  0  0  0
   -4.3012   -0.0713    1.4371 C   0  0  0  0  0  0  0  0  0  0  0  0
   -4.1276   -0.1394   -0.9717 C   0  0  0  0  0  0  0  0  0  0  0  0
   -4.8994   -0.2284    0.1868 C   0  0  0  0  0  0  0  0  0  0  0  0
   -6.7838   -0.6178   -1.2109 C   0  0  0  0  0  0  0  0  0  0  0  0
   -0.3978    0.6226    1.5308 H   0  0  0  0  0  0  0  0  0  0  0  0
   -0.8116    2.6701    0.1582 H   0  0  0  0  0  0  0  0  0  0  0  0
   -0.5165    1.7580   -1.3451 H   0  0  0  0  0  0  0  0  0  0  0  0
   -2.4799    0.2947    2.5101 H   0  0  0  0  0  0  0  0  0  0  0  0
   -2.1709    0.1604   -1.7929 H   0  0  0  0  0  0  0  0  0  0  0  0
    0.6418   -2.9675   -0.7390 H   0  0  0  0  0  0  0  0  0  0  0  0
    2.1632   -3.7528   -0.3851 H   0  0  0  0  0  0  0  0  0  0  0  0
    1.1419   -3.1997    0.9556 H   0  0  0  0  0  0  0  0  0  0  0  0
    6.0293    0.6922    0.5287 H   0  0  0  0  0  0  0  0  0  0  0  0
    6.1180   -1.0309    0.5639 H   0  0  0  0  0  0  0  0  0  0  0  0
    6.0685   -0.2009   -1.0129 H   0  0  0  0  0  0  0  0  0  0  0  0
   -4.8974   -0.1394    2.3429 H   0  0  0  0  0  0  0  0  0  0  0  0
   -4.5271   -0.2538   -1.9735 H   0  0  0  0  0  0  0  0  0  0  0  0
    4.9062    2.0048   -0.5285 H   0  0  0  0  0  0  0  0  0  0  0  0
    5.1636   -2.5041   -0.4239 H   0  0  0  0  0  0  0  0  0  0  0  0
   -6.6791    0.3003   -1.7988 H   0  0  0  0  0  0  0  0  0  0  0  0
   -7.8567   -0.8015   -1.0935 H   0  0  0  0  0  0  0  0  0  0  0  0
   -6.3644   -1.4896   -1.7245 H   0  0  0  0  0  0  0  0  0  0  0  0
  1  6  1  0  0  0  0
  1  9  1  0  0  0  0
  2 10  2  0  0  0  0
  3 13  1  0  0  0  0
  3 37  1  0  0  0  0
  4 15  1  0  0  0  0
  4 38  1  0  0  0  0
  5 22  1  0  0  0  0
  5 23  1  0  0  0  0
  6  7  1  0  0  0  0
  6 11  1  0  0  0  0
  6 24  1  0  0  0  0
  7 10  1  0  0  0  0
  7 25  1  0  0  0  0
  7 26  1  0  0  0  0
  8  9  1  0  0  0  0
  8 10  1  0  0  0  0
  8 13  2  0  0  0  0
  9 12  2  0  0  0  0
 11 16  2  0  0  0  0
 11 17  1  0  0  0  0
 12 15  1  0  0  0  0
 12 18  1  0  0  0  0
 13 14  1  0  0  0  0
 14 15  2  0  0  0  0
 14 19  1  0  0  0  0
 16 20  1  0  0  0  0
 16 27  1  0  0  0  0
 17 21  2  0  0  0  0
 17 28  1  0  0  0  0
 18 29  1  0  0  0  0
 18 30  1  0  0  0  0
 18 31  1  0  0  0  0
 19 32  1  0  0  0  0
 19 33  1  0  0  0  0
 19 34  1  0  0  0  0
 20 22  2  0  0  0  0
 20 35  1  0  0  0  0
 21 22  1  0  0  0  0
 21 36  1  0  0  0  0
 23 39  1  0  0  0  0
 23 40  1  0  0  0  0
 23 41  1  0  0  0  0
M  END
> <PUBCHEM_COMPOUND_CID>
160490

> <PUBCHEM_CONFORMER_RMSD>
0.6

> <PUBCHEM_CONFORMER_DIVERSEORDER>
1
3
6
4
2
5

> <PUBCHEM_MMFF94_PARTIAL_CHARGES>
29
1 -0.36
10 0.42
11 -0.14
12 -0.14
13 0.08
14 -0.14
15 0.08
16 -0.15
17 -0.15
18 0.14
19 0.14
2 -0.57
20 -0.15
21 -0.15
22 0.08
23 0.28
27 0.15
28 0.15
3 -0.53
35 0.15
36 0.15
37 0.45
38 0.45
4 -0.53
5 -0.36
6 0.42
7 0.06
8 0.09
9 0.08

> <PUBCHEM_EFFECTIVE_ROTOR_COUNT>
2.6

> <PUBCHEM_PHARMACOPHORE_FEATURES>
8
1 1 acceptor
1 2 acceptor
1 3 donor
1 4 donor
1 5 acceptor
6 1 6 7 8 9 10 rings
6 11 16 17 20 21 22 rings
6 8 9 12 13 14 15 rings

> <PUBCHEM_HEAVY_ATOM_COUNT>
23

> <PUBCHEM_ATOM_DEF_STEREO_COUNT>
1

> <PUBCHEM_ATOM_UDEF_STEREO_COUNT>
0

> <PUBCHEM_BOND_DEF_STEREO_COUNT>
0

> <PUBCHEM_BOND_UDEF_STEREO_COUNT>
0

> <PUBCHEM_ISOTOPIC_ATOM_COUNT>
0

> <PUBCHEM_COMPONENT_COUNT>
1

> <PUBCHEM_CACTVS_TAUTO_COUNT>
21

> <PUBCHEM_CONFORMER_ID>
000272EA00000001

> <PUBCHEM_MMFF94_ENERGY>
82.9406

> <PUBCHEM_FEATURE_SELFOVERLAP>
40.627

> <PUBCHEM_SHAPE_FINGERPRINT>
10411042 1 18194119613020590398
10447042 23 18409443661460325599
10693767 8 18202009789881306766
10967382 1 18410295809537831342
11471102 20 18408888459622494968
11796584 16 16298389058755651418
12011746 2 18334583447185929054
12107183 9 17623865521923900385
12166972 35 18131349726308253473
12236239 1 17846782923158441865
12596602 18 17275385408567665115
12623949 98 17416695648419623990
12838862 33 18338221774465847316
13140716 1 18194966464269219088
13402501 40 18113339721550172035
13533116 47 18273494593804834225
13544653 18 18334583395113636500
13836976 161 18409171034543298486
13862211 1 18410292472248366410
14170010 4 18408601495904524261
14386348 63 17748829631168045257
14790565 3 17686633746046823476
14863182 85 18339653261042599838
15183329 4 18337100173963426717
15196674 1 18338237042567734168
15483637 11 18121217847113372227
15961568 22 16226337035295867428
17138139 8 17557962208179375039
17349148 13 17703792526861336765
17357779 13 18113611266420199837
17492 89 17977380539237032322
1813 80 18271539593205567156
18222031 100 18412824655557744138
200 152 18343580725060974057
20028762 73 18130785620956512246
20511986 3 17917981785703937561
20612939 158 18337393837192426381
20645477 70 18334572442931077471
21033648 29 17895180134963048733
21065198 48 18059581260936480945
21197605 99 18122353633818405875
21267235 1 18412832361050820054
21285901 2 17749384832768363109
21641784 216 17968960590849962580
221357 26 18261104158928243117
22224240 67 18271799164550460744
23557571 272 17023179397055054789
23559900 14 17385726924059394429
2871803 45 18187366484920499418
314194 84 18342177765235340323
335352 9 18410859885120876750
33824 294 18408885144366535554
345986 75 18130501912574714984
34797466 226 16443359683920668031
3633792 109 18412537692604333245
4073 2 18113903822939898859
4098825 35 18410003318429150709
42630746 31 18413671327098442318
46194498 28 17749107824510492485
474 4 18268149931885302352
5104073 3 18195523697747673072
5283173 99 17895747379926068213
602551 16 15267051588729489485
9981440 41 17192052567495133240

> <PUBCHEM_SHAPE_MULTIPOLES>
443.98
13.11
2.42
0.97
13.63
0.01
0.16
3.62
-1.53
-3.63
-0.2
1.49
0.02
-0.34

> <PUBCHEM_SHAPE_SELFOVERLAP>
975.366

> <PUBCHEM_SHAPE_VOLUME>
240.9

> <PUBCHEM_COORDINATE_TYPE>
2
5
10

$$$$
