6737485
  -OEChem-09022009593D

 46 51  0     0  0  0  0  0  0999 V2000
   -0.8953   -0.1789   -1.6629 O   0  0  0  0  0  0  0  0  0  0  0  0
    0.8953   -0.1788    1.6628 O   0  0  0  0  0  0  0  0  0  0  0  0
   -4.8317    0.1478    1.9360 O   0  0  0  0  0  0  0  0  0  0  0  0
    4.8316    0.1477   -1.9360 O   0  0  0  0  0  0  0  0  0  0  0  0
   -0.5642    1.6769    0.4571 C   0  0  0  0  0  0  0  0  0  0  0  0
    0.5643    1.6769   -0.4572 C   0  0  0  0  0  0  0  0  0  0  0  0
   -1.6926    0.8600    0.3175 C   0  0  0  0  0  0  0  0  0  0  0  0
    1.6926    0.8600   -0.3176 C   0  0  0  0  0  0  0  0  0  0  0  0
   -2.7274    0.9362    1.2520 C   0  0  0  0  0  0  0  0  0  0  0  0
    2.7275    0.9362   -1.2521 C   0  0  0  0  0  0  0  0  0  0  0  0
   -1.7785   -0.0775   -0.8208 C   0  0  0  0  0  0  0  0  0  0  0  0
    1.7786   -0.0774    0.8209 C   0  0  0  0  0  0  0  0  0  0  0  0
   -2.9753   -0.9327   -0.9566 C   0  0  0  0  0  0  0  0  0  0  0  0
    2.9753   -0.9327    0.9567 C   0  0  0  0  0  0  0  0  0  0  0  0
   -4.0101   -0.8565   -0.0221 C   0  0  0  0  0  0  0  0  0  0  0  0
    4.0101   -0.8565    0.0220 C   0  0  0  0  0  0  0  0  0  0  0  0
   -0.4753    2.5658    1.5288 C   0  0  0  0  0  0  0  0  0  0  0  0
    0.4752    2.5657   -1.5289 C   0  0  0  0  0  0  0  0  0  0  0  0
   -3.9241    0.0810    1.1163 C   0  0  0  0  0  0  0  0  0  0  0  0
    3.9241    0.0809   -1.1162 C   0  0  0  0  0  0  0  0  0  0  0  0
   -2.6338    1.8292    2.3262 C   0  0  0  0  0  0  0  0  0  0  0  0
    2.6339    1.8291   -2.3264 C   0  0  0  0  0  0  0  0  0  0  0  0
   -1.5079    2.6418    2.4613 C   0  0  0  0  0  0  0  0  0  0  0  0
    1.5079    2.6417   -2.4614 C   0  0  0  0  0  0  0  0  0  0  0  0
   -3.0695   -1.8250   -2.0314 C   0  0  0  0  0  0  0  0  0  0  0  0
    3.0694   -1.8249    2.0315 C   0  0  0  0  0  0  0  0  0  0  0  0
   -5.1394   -1.6721   -0.1626 C   0  0  0  0  0  0  0  0  0  0  0  0
    5.1393   -1.6720    0.1627 C   0  0  0  0  0  0  0  0  0  0  0  0
   -4.1964   -2.6362   -2.1675 C   0  0  0  0  0  0  0  0  0  0  0  0
    4.1964   -2.6361    2.1675 C   0  0  0  0  0  0  0  0  0  0  0  0
   -5.2292   -2.5597   -1.2351 C   0  0  0  0  0  0  0  0  0  0  0  0
    5.2292   -2.5597    1.2353 C   0  0  0  0  0  0  0  0  0  0  0  0
    0.3922    3.2096    1.6582 H   0  0  0  0  0  0  0  0  0  0  0  0
   -0.3923    3.2095   -1.6582 H   0  0  0  0  0  0  0  0  0  0  0  0
   -3.4253    1.9074    3.0667 H   0  0  0  0  0  0  0  0  0  0  0  0
    3.4253    1.9071   -3.0669 H   0  0  0  0  0  0  0  0  0  0  0  0
   -1.4361    3.3343    3.2951 H   0  0  0  0  0  0  0  0  0  0  0  0
    1.4360    3.3340   -3.2952 H   0  0  0  0  0  0  0  0  0  0  0  0
   -2.2796   -1.9056   -2.7733 H   0  0  0  0  0  0  0  0  0  0  0  0
    2.2796   -1.9055    2.7734 H   0  0  0  0  0  0  0  0  0  0  0  0
   -5.9582   -1.6314    0.5507 H   0  0  0  0  0  0  0  0  0  0  0  0
    5.9582   -1.6315   -0.5506 H   0  0  0  0  0  0  0  0  0  0  0  0
   -4.2689   -3.3282   -3.0015 H   0  0  0  0  0  0  0  0  0  0  0  0
    4.2688   -3.3281    3.0016 H   0  0  0  0  0  0  0  0  0  0  0  0
   -6.1055   -3.1922   -1.3435 H   0  0  0  0  0  0  0  0  0  0  0  0
    6.1055   -3.1922    1.3438 H   0  0  0  0  0  0  0  0  0  0  0  0
  1 11  2  0  0  0  0
  2 12  2  0  0  0  0
  3 19  2  0  0  0  0
  4 20  2  0  0  0  0
  5  6  1  0  0  0  0
  5  7  2  0  0  0  0
  5 17  1  0  0  0  0
  6  8  2  0  0  0  0
  6 18  1  0  0  0  0
  7  9  1  0  0  0  0
  7 11  1  0  0  0  0
  8 10  1  0  0  0  0
  8 12  1  0  0  0  0
  9 19  1  0  0  0  0
  9 21  2  0  0  0  0
 10 20  1  0  0  0  0
 10 22  2  0  0  0  0
 11 13  1  0  0  0  0
 12 14  1  0  0  0  0
 13 15  1  0  0  0  0
 13 25  2  0  0  0  0
 14 16  1  0  0  0  0
 14 26  2  0  0  0  0
 15 19  1  0  0  0  0
 15 27  2  0  0  0  0
 16 20  1  0  0  0  0
 16 28  2  0  0  0  0
 17 23  2  0  0  0  0
 17 33  1  0  0  0  0
 18 24  2  0  0  0  0
 18 34  1  0  0  0  0
 21 23  1  0  0  0  0
 21 35  1  0  0  0  0
 22 24  1  0  0  0  0
 22 36  1  0  0  0  0
 23 37  1  0  0  0  0
 24 38  1  0  0  0  0
 25 29  1  0  0  0  0
 25 39  1  0  0  0  0
 26 30  1  0  0  0  0
 26 40  1  0  0  0  0
 27 31  1  0  0  0  0
 27 41  1  0  0  0  0
 28 32  1  0  0  0  0
 28 42  1  0  0  0  0
 29 31  2  0  0  0  0
 29 43  1  0  0  0  0
 30 32  2  0  0  0  0
 30 44  1  0  0  0  0
 31 45  1  0  0  0  0
 32 46  1  0  0  0  0
M  END
> <PUBCHEM_COMPOUND_CID>
6737485

> <PUBCHEM_CONFORMER_RMSD>
0.6

> <PUBCHEM_CONFORMER_DIVERSEORDER>
1
2

> <PUBCHEM_MMFF94_PARTIAL_CHARGES>
44
1 -0.57
10 0.09
11 0.4
12 0.4
13 0.09
14 0.09
15 0.09
16 0.09
17 -0.15
18 -0.15
19 0.4
2 -0.57
20 0.4
21 -0.15
22 -0.15
23 -0.15
24 -0.15
25 -0.15
26 -0.15
27 -0.15
28 -0.15
29 -0.15
3 -0.57
30 -0.15
31 -0.15
32 -0.15
33 0.15
34 0.15
35 0.15
36 0.15
37 0.15
38 0.15
39 0.15
4 -0.57
40 0.15
41 0.15
42 0.15
43 0.15
44 0.15
45 0.15
46 0.15
7 0.09
8 0.09
9 0.09

> <PUBCHEM_EFFECTIVE_ROTOR_COUNT>
1

> <PUBCHEM_PHARMACOPHORE_FEATURES>
10
1 1 acceptor
1 2 acceptor
1 3 acceptor
1 4 acceptor
6 13 15 25 27 29 31 rings
6 14 16 26 28 30 32 rings
6 5 7 9 17 21 23 rings
6 6 8 10 18 22 24 rings
6 7 9 11 13 15 19 rings
6 8 10 12 14 16 20 rings

> <PUBCHEM_HEAVY_ATOM_COUNT>
32

> <PUBCHEM_ATOM_DEF_STEREO_COUNT>
0

> <PUBCHEM_ATOM_UDEF_STEREO_COUNT>
0

> <PUBCHEM_BOND_DEF_STEREO_COUNT>
0

> <PUBCHEM_BOND_UDEF_STEREO_COUNT>
0

> <PUBCHEM_ISOTOPIC_ATOM_COUNT>
0

> <PUBCHEM_COMPONENT_COUNT>
1

> <PUBCHEM_CACTVS_TAUTO_COUNT>
1

> <PUBCHEM_CONFORMER_ID>
0066CE4D00000001

> <PUBCHEM_MMFF94_ENERGY>
116.5125

> <PUBCHEM_FEATURE_SELFOVERLAP>
50.835

> <PUBCHEM_SHAPE_FINGERPRINT>
10319926 262 17060062489150408254
10622 236 18335411344697511747
10974685 15 14924803361308500226
11135926 11 17386872611349912772
11227688 84 16954505950027632314
11578080 2 18338496599910738724
11763715 3 18342744013813504624
12166972 35 18336251436311337519
12236239 1 18338536182328663089
12422481 6 17983579602715521486
12633257 1 15625646336381620307
12788726 201 18201453496704570265
13009979 54 18341613702637216122
13140716 1 17274554234160546649
13383661 66 16598458147477659363
13726171 33 17272321151340097329
13782708 43 15769509659000915204
13911987 19 16952566669219054332
14705955 166 15697733540277898707
14856354 85 17702654433932984178
15163728 17 11602812450628289873
15320294 125 18341616954476286627
17349148 13 18410859862475343686
17980427 26 17608694696248995748
1813 80 18334861580388076342
19315092 285 18338218424216946112
19319366 153 17834114525717755679
20511986 3 18410867559051905092
20600515 1 17346602963196201921
20775438 99 17463391056383879011
21033648 29 15410903972231129579
22182313 1 15647345176886081513
22393880 68 15285355102693755650
23598288 3 18265342698416647345
238 59 17168419479962489062
25222932 49 17196276856988398183
345986 75 18342451560520063519
4394409 98 18129361771221411951
46194498 28 15503239910163502838
484985 159 17981867679974263291
50009960 94 17267462474066366871
5265222 85 16916523527283745436
57527293 21 16343123840361846814
59025328 239 18113886195792781676
602551 16 17560809796659056496
6677587 24 16525209726263589327
6823239 73 16629421304915595101
70251023 43 17895185636631252973
86090 222 16031255381548079203

> <PUBCHEM_SHAPE_MULTIPOLES>
635.07
11.08
3.37
2.78
0
0.02
0
-11.03
0
0
0
0
0.78
-5.28

> <PUBCHEM_SHAPE_SELFOVERLAP>
1482.616

> <PUBCHEM_SHAPE_VOLUME>
317.2

> <PUBCHEM_COORDINATE_TYPE>
2
5
10

$$$$
