155381
  -OEChem-09022005493D

 44 46  0     0  0  0  0  0  0999 V2000
   -3.0159    2.2085    0.2069 O   0  0  0  0  0  0  0  0  0  0  0  0
    2.0751    2.3373    0.1929 O   0  0  0  0  0  0  0  0  0  0  0  0
    4.4410    1.0112    0.1237 O   0  0  0  0  0  0  0  0  0  0  0  0
   -0.4686    2.1848    0.1932 O   0  0  0  0  0  0  0  0  0  0  0  0
   -0.3338   -3.1523   -0.0429 O   0  0  0  0  0  0  0  0  0  0  0  0
    4.4994   -1.7478    0.0006 O   0  0  0  0  0  0  0  0  0  0  0  0
   -5.3104    0.7687    0.1570 O   0  0  0  0  0  0  0  0  0  0  0  0
   -1.6914    0.1815    0.1131 C   0  0  0  0  0  0  0  0  0  0  0  0
    0.8539    0.2460    0.1041 C   0  0  0  0  0  0  0  0  0  0  0  0
   -1.6564   -1.2132    0.0522 C   0  0  0  0  0  0  0  0  0  0  0  0
    0.8890   -1.1487    0.0430 C   0  0  0  0  0  0  0  0  0  0  0  0
   -0.4376    0.9620    0.1408 C   0  0  0  0  0  0  0  0  0  0  0  0
   -0.3648   -1.9293    0.0144 C   0  0  0  0  0  0  0  0  0  0  0  0
   -2.9221    0.8481    0.1481 C   0  0  0  0  0  0  0  0  0  0  0  0
    2.0494    0.9740    0.1308 C   0  0  0  0  0  0  0  0  0  0  0  0
   -2.8519   -1.9413    0.0263 C   0  0  0  0  0  0  0  0  0  0  0  0
   -4.0760   -1.2731    0.0616 C   0  0  0  0  0  0  0  0  0  0  0  0
    2.1196   -1.8154    0.0083 C   0  0  0  0  0  0  0  0  0  0  0  0
   -4.1111    0.1187    0.1222 C   0  0  0  0  0  0  0  0  0  0  0  0
    3.2736    0.3057    0.0962 C   0  0  0  0  0  0  0  0  0  0  0  0
    3.3086   -1.0859    0.0351 C   0  0  0  0  0  0  0  0  0  0  0  0
   -5.3400   -2.0683    0.0329 C   0  0  0  0  0  0  0  0  0  0  0  0
   -3.0670    2.9063   -1.0345 C   0  0  0  0  0  0  0  0  0  0  0  0
    2.0804    3.0399   -1.0469 C   0  0  0  0  0  0  0  0  0  0  0  0
    4.9976    1.2896    1.4060 C   0  0  0  0  0  0  0  0  0  0  0  0
    5.0593   -2.0069   -1.2850 C   0  0  0  0  0  0  0  0  0  0  0  0
   -2.8335   -3.0274   -0.0212 H   0  0  0  0  0  0  0  0  0  0  0  0
    2.1662   -2.9007   -0.0384 H   0  0  0  0  0  0  0  0  0  0  0  0
   -5.1465   -3.1454   -0.0128 H   0  0  0  0  0  0  0  0  0  0  0  0
   -5.9293   -1.8784    0.9361 H   0  0  0  0  0  0  0  0  0  0  0  0
   -5.9356   -1.8037   -0.8471 H   0  0  0  0  0  0  0  0  0  0  0  0
   -5.1467    1.7194    0.2781 H   0  0  0  0  0  0  0  0  0  0  0  0
    1.3455    2.6312   -1.7483 H   0  0  0  0  0  0  0  0  0  0  0  0
    3.0783    2.9976   -1.4943 H   0  0  0  0  0  0  0  0  0  0  0  0
    1.8317    4.0862   -0.8493 H   0  0  0  0  0  0  0  0  0  0  0  0
   -4.0547    2.7923   -1.4916 H   0  0  0  0  0  0  0  0  0  0  0  0
   -2.2989    2.5515   -1.7297 H   0  0  0  0  0  0  0  0  0  0  0  0
   -2.8960    3.9682   -0.8377 H   0  0  0  0  0  0  0  0  0  0  0  0
    4.3056    1.8894    2.0057 H   0  0  0  0  0  0  0  0  0  0  0  0
    5.2403    0.3603    1.9309 H   0  0  0  0  0  0  0  0  0  0  0  0
    5.9193    1.8600    1.2625 H   0  0  0  0  0  0  0  0  0  0  0  0
    6.0087   -2.5313   -1.1459 H   0  0  0  0  0  0  0  0  0  0  0  0
    4.3907   -2.6434   -1.8732 H   0  0  0  0  0  0  0  0  0  0  0  0
    5.2517   -1.0703   -1.8179 H   0  0  0  0  0  0  0  0  0  0  0  0
  1 14  1  0  0  0  0
  1 23  1  0  0  0  0
  2 15  1  0  0  0  0
  2 24  1  0  0  0  0
  3 20  1  0  0  0  0
  3 25  1  0  0  0  0
  4 12  2  0  0  0  0
  5 13  2  0  0  0  0
  6 21  1  0  0  0  0
  6 26  1  0  0  0  0
  7 19  1  0  0  0  0
  7 32  1  0  0  0  0
  8 10  2  0  0  0  0
  8 12  1  0  0  0  0
  8 14  1  0  0  0  0
  9 11  1  0  0  0  0
  9 12  1  0  0  0  0
  9 15  2  0  0  0  0
 10 13  1  0  0  0  0
 10 16  1  0  0  0  0
 11 13  1  0  0  0  0
 11 18  2  0  0  0  0
 14 19  2  0  0  0  0
 15 20  1  0  0  0  0
 16 17  2  0  0  0  0
 16 27  1  0  0  0  0
 17 19  1  0  0  0  0
 17 22  1  0  0  0  0
 18 21  1  0  0  0  0
 18 28  1  0  0  0  0
 20 21  2  0  0  0  0
 22 29  1  0  0  0  0
 22 30  1  0  0  0  0
 22 31  1  0  0  0  0
 23 36  1  0  0  0  0
 23 37  1  0  0  0  0
 23 38  1  0  0  0  0
 24 33  1  0  0  0  0
 24 34  1  0  0  0  0
 24 35  1  0  0  0  0
 25 39  1  0  0  0  0
 25 40  1  0  0  0  0
 25 41  1  0  0  0  0
 26 42  1  0  0  0  0
 26 43  1  0  0  0  0
 26 44  1  0  0  0  0
M  END
> <PUBCHEM_COMPOUND_CID>
155381

> <PUBCHEM_CONFORMER_RMSD>
0.8

> <PUBCHEM_CONFORMER_DIVERSEORDER>
2
1

> <PUBCHEM_MMFF94_PARTIAL_CHARGES>
29
1 -0.36
10 0.09
11 0.09
12 0.4
13 0.4
14 0.08
15 0.08
16 -0.15
17 -0.14
18 -0.15
19 0.08
2 -0.36
20 0.08
21 0.08
22 0.14
23 0.28
24 0.28
25 0.28
26 0.28
27 0.15
28 0.15
3 -0.36
32 0.45
4 -0.57
5 -0.57
6 -0.36
7 -0.53
8 0.09
9 0.09

> <PUBCHEM_EFFECTIVE_ROTOR_COUNT>
4

> <PUBCHEM_PHARMACOPHORE_FEATURES>
10
1 1 acceptor
1 2 acceptor
1 3 acceptor
1 4 acceptor
1 5 acceptor
1 6 acceptor
1 7 donor
6 8 10 14 16 17 19 rings
6 8 9 10 11 12 13 rings
6 9 11 15 18 20 21 rings

> <PUBCHEM_HEAVY_ATOM_COUNT>
26

> <PUBCHEM_ATOM_DEF_STEREO_COUNT>
0

> <PUBCHEM_ATOM_UDEF_STEREO_COUNT>
0

> <PUBCHEM_BOND_DEF_STEREO_COUNT>
0

> <PUBCHEM_BOND_UDEF_STEREO_COUNT>
0

> <PUBCHEM_ISOTOPIC_ATOM_COUNT>
0

> <PUBCHEM_COMPONENT_COUNT>
1

> <PUBCHEM_CACTVS_TAUTO_COUNT>
5

> <PUBCHEM_CONFORMER_ID>
00025EF500000002

> <PUBCHEM_MMFF94_ENERGY>
123.6863

> <PUBCHEM_FEATURE_SELFOVERLAP>
50.833

> <PUBCHEM_SHAPE_FINGERPRINT>
10366900 7 17603310349142027691
10616163 171 18267306615130468695
10906281 52 18116723005239952616
10967382 1 18338517426206039771
11578080 2 16808129096466018463
12403259 226 18410853278612212825
12403259 415 18338796715076259604
12403260 363 18408880763309917961
13140716 1 18194392304208477682
14341114 176 18411987944515385393
14790565 3 18411144631712952585
15196674 1 18412545413916626011
15256400 18 18411136948090157096
15536298 74 18342739619998273474
17492 89 18411138051812992714
1813 80 17458341957359913540
19591789 44 18410856555519174939
20028762 73 18201998854604933655
20510252 161 18343582945163427593
20691752 17 17675927573397586634
21033648 29 17988342811429479226
21267235 1 18411710863100775547
21279426 13 18340487768222942287
221357 26 18412263939019069239
221490 88 18336836367458739858
22182313 1 18337941321274284100
22393880 68 18337670793726144774
23227448 37 18410290273182581901
23402539 116 18269827765528725615
23559900 14 18412824685501000976
2748010 2 18411419475238766799
3004659 81 18189063002152611342
335352 9 18339082593032362727
350125 39 18410014346945180977
4214541 1 18411137996204582633
5104073 3 18413388713570550098
59755656 215 18265615386364452455
6138700 20 18195252114018133406
9709674 26 18337677519597632835

> <PUBCHEM_SHAPE_MULTIPOLES>
493.98
10.56
3.42
0.84
0.04
0.86
0.06
-1.9
-0.24
0.12
0.77
-0.73
0.22
1.01

> <PUBCHEM_SHAPE_SELFOVERLAP>
1091.442

> <PUBCHEM_SHAPE_VOLUME>
265.4

> <PUBCHEM_COORDINATE_TYPE>
2
5
10

$$$$
