161779
  -OEChem-09102005293D

 52 54  0     1  0  0  0  0  0999 V2000
    4.4506   -2.2759    0.1524 O   0  0  0  0  0  0  0  0  0  0  0  0
   -2.3344    2.0873   -0.7496 O   0  0  0  0  0  0  0  0  0  0  0  0
   -3.5469   -2.4742   -0.0564 O   0  0  0  0  0  0  0  0  0  0  0  0
   -4.1840    0.0567   -0.8771 O   0  0  0  0  0  0  0  0  0  0  0  0
   -0.5110    3.1235    1.8175 O   0  0  0  0  0  0  0  0  0  0  0  0
    2.1694   -2.4422   -0.6686 C   0  0  0  0  0  0  0  0  0  0  0  0
    3.3170   -1.5006   -0.2361 C   0  0  2  0  0  0  0  0  0  0  0  0
    1.5863   -3.2743    0.4910 C   0  0  0  0  0  0  0  0  0  0  0  0
    3.7553   -0.5483   -1.3797 C   0  0  0  0  0  0  0  0  0  0  0  0
    0.1484   -3.7725    0.2187 C   0  0  0  0  0  0  0  0  0  0  0  0
   -0.9579   -3.1284    1.0878 C   0  0  0  0  0  0  0  0  0  0  0  0
    3.9435    0.9347   -0.9511 C   0  0  0  0  0  0  0  0  0  0  0  0
   -1.3805   -1.7407    0.6701 C   0  0  0  0  0  0  0  0  0  0  0  0
    2.7353    1.6343   -0.3636 C   0  0  0  0  0  0  0  0  0  0  0  0
   -0.7706    0.6133    0.3081 C   0  0  0  0  0  0  0  0  0  0  0  0
    0.3619    1.5408    0.2364 C   0  0  0  0  0  0  0  0  0  0  0  0
   -0.4994   -0.6725    0.8228 C   0  0  0  0  0  0  0  0  0  0  0  0
    1.4522    1.1262   -0.5480 C   0  0  0  0  0  0  0  0  0  0  0  0
   -2.6293   -1.4761    0.1023 C   0  0  0  0  0  0  0  0  0  0  0  0
   -2.0253    0.8602   -0.2431 C   0  0  0  0  0  0  0  0  0  0  0  0
   -2.9562   -0.1813   -0.3281 C   0  0  0  0  0  0  0  0  0  0  0  0
    2.8708    2.7644    0.4475 C   0  0  0  0  0  0  0  0  0  0  0  0
    0.5125    2.6639    1.0461 C   0  0  0  0  0  0  0  0  0  0  0  0
    1.7598    3.2939    1.1206 C   0  0  0  0  0  0  0  0  0  0  0  0
   -2.0519    2.3079   -2.1296 C   0  0  0  0  0  0  0  0  0  0  0  0
   -5.2155    0.4797    0.0098 C   0  0  0  0  0  0  0  0  0  0  0  0
    2.5342   -3.1348   -1.4377 H   0  0  0  0  0  0  0  0  0  0  0  0
    1.3666   -1.8576   -1.1256 H   0  0  0  0  0  0  0  0  0  0  0  0
    3.0013   -0.9370    0.6475 H   0  0  0  0  0  0  0  0  0  0  0  0
    1.6291   -2.7225    1.4355 H   0  0  0  0  0  0  0  0  0  0  0  0
    2.2372   -4.1474    0.6297 H   0  0  0  0  0  0  0  0  0  0  0  0
    3.0340   -0.5807   -2.2052 H   0  0  0  0  0  0  0  0  0  0  0  0
    4.7082   -0.8925   -1.8023 H   0  0  0  0  0  0  0  0  0  0  0  0
    0.1377   -4.8463    0.4496 H   0  0  0  0  0  0  0  0  0  0  0  0
   -0.1048   -3.6871   -0.8448 H   0  0  0  0  0  0  0  0  0  0  0  0
   -0.6382   -3.0997    2.1375 H   0  0  0  0  0  0  0  0  0  0  0  0
   -1.8263   -3.7979    1.0716 H   0  0  0  0  0  0  0  0  0  0  0  0
    4.2725    1.5094   -1.8256 H   0  0  0  0  0  0  0  0  0  0  0  0
    4.7568    0.9677   -0.2149 H   0  0  0  0  0  0  0  0  0  0  0  0
    0.4667   -0.8514    1.2903 H   0  0  0  0  0  0  0  0  0  0  0  0
    1.2978    0.2919   -1.2247 H   0  0  0  0  0  0  0  0  0  0  0  0
    3.8462    3.2217    0.5931 H   0  0  0  0  0  0  0  0  0  0  0  0
    5.1381   -1.6568    0.4522 H   0  0  0  0  0  0  0  0  0  0  0  0
    1.8997    4.1651    1.7563 H   0  0  0  0  0  0  0  0  0  0  0  0
   -4.3294   -2.1114   -0.5059 H   0  0  0  0  0  0  0  0  0  0  0  0
   -0.2073    3.8997    2.3186 H   0  0  0  0  0  0  0  0  0  0  0  0
   -0.9861    2.1780   -2.3394 H   0  0  0  0  0  0  0  0  0  0  0  0
   -2.3307    3.3366   -2.3742 H   0  0  0  0  0  0  0  0  0  0  0  0
   -2.6407    1.6303   -2.7559 H   0  0  0  0  0  0  0  0  0  0  0  0
   -4.9641    1.4464    0.4573 H   0  0  0  0  0  0  0  0  0  0  0  0
   -5.3818   -0.2643    0.7953 H   0  0  0  0  0  0  0  0  0  0  0  0
   -6.1382    0.5915   -0.5661 H   0  0  0  0  0  0  0  0  0  0  0  0
  1  7  1  0  0  0  0
  1 43  1  0  0  0  0
  2 20  1  0  0  0  0
  2 25  1  0  0  0  0
  3 19  1  0  0  0  0
  3 45  1  0  0  0  0
  4 21  1  0  0  0  0
  4 26  1  0  0  0  0
  5 23  1  0  0  0  0
  5 46  1  0  0  0  0
  6  7  1  0  0  0  0
  6  8  1  0  0  0  0
  6 27  1  0  0  0  0
  6 28  1  0  0  0  0
  7  9  1  0  0  0  0
  7 29  1  0  0  0  0
  8 10  1  0  0  0  0
  8 30  1  0  0  0  0
  8 31  1  0  0  0  0
  9 12  1  0  0  0  0
  9 32  1  0  0  0  0
  9 33  1  0  0  0  0
 10 11  1  0  0  0  0
 10 34  1  0  0  0  0
 10 35  1  0  0  0  0
 11 13  1  0  0  0  0
 11 36  1  0  0  0  0
 11 37  1  0  0  0  0
 12 14  1  0  0  0  0
 12 38  1  0  0  0  0
 12 39  1  0  0  0  0
 13 17  2  0  0  0  0
 13 19  1  0  0  0  0
 14 18  2  0  0  0  0
 14 22  1  0  0  0  0
 15 16  1  0  0  0  0
 15 17  1  0  0  0  0
 15 20  2  0  0  0  0
 16 18  1  0  0  0  0
 16 23  2  0  0  0  0
 17 40  1  0  0  0  0
 18 41  1  0  0  0  0
 19 21  2  0  0  0  0
 20 21  1  0  0  0  0
 22 24  2  0  0  0  0
 22 42  1  0  0  0  0
 23 24  1  0  0  0  0
 24 44  1  0  0  0  0
 25 47  1  0  0  0  0
 25 48  1  0  0  0  0
 25 49  1  0  0  0  0
 26 50  1  0  0  0  0
 26 51  1  0  0  0  0
 26 52  1  0  0  0  0
M  END
> <PUBCHEM_COMPOUND_CID>
161779

> <PUBCHEM_CONFORMER_RMSD>
0.8

> <PUBCHEM_CONFORMER_DIVERSEORDER>
1
6
7
2
9
8
3
4
5

> <PUBCHEM_MMFF94_PARTIAL_CHARGES>
27
1 -0.68
11 0.14
12 0.14
13 -0.14
14 -0.14
17 -0.15
18 -0.15
19 0.08
2 -0.36
20 0.08
21 0.08
22 -0.15
23 0.08
24 -0.15
25 0.28
26 0.28
3 -0.53
4 -0.36
40 0.15
41 0.15
42 0.15
43 0.4
44 0.15
45 0.45
46 0.45
5 -0.53
7 0.28

> <PUBCHEM_EFFECTIVE_ROTOR_COUNT>
3.4

> <PUBCHEM_PHARMACOPHORE_FEATURES>
8
1 1 acceptor
1 1 donor
1 2 acceptor
1 3 donor
1 4 acceptor
1 5 donor
6 13 15 17 19 20 21 rings
6 14 16 18 22 23 24 rings

> <PUBCHEM_HEAVY_ATOM_COUNT>
26

> <PUBCHEM_ATOM_DEF_STEREO_COUNT>
1

> <PUBCHEM_ATOM_UDEF_STEREO_COUNT>
0

> <PUBCHEM_BOND_DEF_STEREO_COUNT>
0

> <PUBCHEM_BOND_UDEF_STEREO_COUNT>
0

> <PUBCHEM_ISOTOPIC_ATOM_COUNT>
0

> <PUBCHEM_COMPONENT_COUNT>
1

> <PUBCHEM_CACTVS_TAUTO_COUNT>
8

> <PUBCHEM_CONFORMER_ID>
000277F300000001

> <PUBCHEM_MMFF94_ENERGY>
112.3576

> <PUBCHEM_FEATURE_SELFOVERLAP>
40.602

> <PUBCHEM_SHAPE_FINGERPRINT>
10675989 125 18338233756538678656
10693767 8 18200010937950842263
10871710 139 16537358784104952358
1100329 8 17907302052631737089
11370993 70 18195242458598497950
12156800 1 13486968351039337286
12403259 226 18336549412193930366
12539773 59 16836549173851018792
12553582 1 18198083433683892330
12788726 201 18129115432749552928
13122387 1 18338524032277425030
13140716 1 18411429401087783202
13402501 40 18339364192331055126
14114211 68 17825704138039415766
14178342 30 17836361554529604666
14790565 3 18194128413192133313
14931854 50 18337681802101832526
17093844 170 17690276435967950490
19591789 44 18408605838485459385
19930381 70 18194122914969297627
20775438 99 17696160962287460279
20832881 197 18341898450642886913
20905425 154 18265339580623675206
21285901 2 18044364157431080151
21857420 4 13351275344611929524
22182313 1 18116425046057505363
23559900 14 18337953527656254932
238 59 18196064815691466054
2748010 2 17760370285090372003
3298306 158 18268145538233692950
350125 39 18191304871732661837
3680242 22 18190181187390588906
463206 1 18342170085512204951
5265222 85 17544200832610957924
552612 73 17897725358933068477
57527585 103 17246715509825041186
6443956 14 18412266120930728360
81228 2 17323506866750532235
9709674 26 18123753324735434086

> <PUBCHEM_SHAPE_MULTIPOLES>
505.72
7.26
4.93
1.29
2.15
1.76
-0.18
0.44
-2.2
-1.91
1.41
0.01
-0.86
1.2

> <PUBCHEM_SHAPE_SELFOVERLAP>
1074.749

> <PUBCHEM_SHAPE_VOLUME>
282.1

> <PUBCHEM_COORDINATE_TYPE>
2
5
10

$$$$
