102304203
  -OEChem-09102006103D

 49 51  0     0  0  0  0  0  0999 V2000
   -1.9623   -2.3089   -0.6028 O   0  0  0  0  0  0  0  0  0  0  0  0
   -4.0718   -0.5494   -0.7611 O   0  0  0  0  0  0  0  0  0  0  0  0
   -3.7256    2.1089   -0.1817 O   0  0  0  0  0  0  0  0  0  0  0  0
    0.0428   -2.9484    1.8363 O   0  0  0  0  0  0  0  0  0  0  0  0
   -1.2216    3.1979    0.6830 C   0  0  0  0  0  0  0  0  0  0  0  0
   -1.4453    1.7228    0.4428 C   0  0  0  0  0  0  0  0  0  0  0  0
    0.2189    3.6793    0.9894 C   0  0  0  0  0  0  0  0  0  0  0  0
   -0.5563   -0.5599    0.2344 C   0  0  0  0  0  0  0  0  0  0  0  0
    1.2188    3.5994   -0.1917 C   0  0  0  0  0  0  0  0  0  0  0  0
    0.6889   -1.3300    0.1821 C   0  0  0  0  0  0  0  0  0  0  0  0
   -0.4341    0.7876    0.6324 C   0  0  0  0  0  0  0  0  0  0  0  0
    4.1138   -0.3333   -1.1340 C   0  0  0  0  0  0  0  0  0  0  0  0
    3.0473   -1.1618   -0.4578 C   0  0  0  0  0  0  0  0  0  0  0  0
   -2.6791    1.2474   -0.0138 C   0  0  0  0  0  0  0  0  0  0  0  0
   -1.7928   -1.0139   -0.2139 C   0  0  0  0  0  0  0  0  0  0  0  0
    4.2521    1.0997   -0.5560 C   0  0  0  0  0  0  0  0  0  0  0  0
    1.7113   -0.8061   -0.6293 C   0  0  0  0  0  0  0  0  0  0  0  0
   -2.8568   -0.1114   -0.3165 C   0  0  0  0  0  0  0  0  0  0  0  0
    2.4416    2.7521    0.0910 C   0  0  0  0  0  0  0  0  0  0  0  0
    0.9906   -2.3929    1.0312 C   0  0  0  0  0  0  0  0  0  0  0  0
    3.0832    2.0192   -0.8373 C   0  0  0  0  0  0  0  0  0  0  0  0
    3.3392   -2.2171    0.4075 C   0  0  0  0  0  0  0  0  0  0  0  0
    2.3107   -2.8507    1.1196 C   0  0  0  0  0  0  0  0  0  0  0  0
   -1.7275   -2.6082   -1.9773 C   0  0  0  0  0  0  0  0  0  0  0  0
   -4.9861   -1.0224    0.2239 C   0  0  0  0  0  0  0  0  0  0  0  0
   -1.5692    3.7565   -0.1957 H   0  0  0  0  0  0  0  0  0  0  0  0
   -1.8492    3.4925    1.5341 H   0  0  0  0  0  0  0  0  0  0  0  0
    0.1395    4.7382    1.2721 H   0  0  0  0  0  0  0  0  0  0  0  0
    0.6031    3.1701    1.8817 H   0  0  0  0  0  0  0  0  0  0  0  0
    1.5754    4.6168   -0.3971 H   0  0  0  0  0  0  0  0  0  0  0  0
    0.7141    3.2524   -1.1009 H   0  0  0  0  0  0  0  0  0  0  0  0
    0.5218    1.1072    1.0366 H   0  0  0  0  0  0  0  0  0  0  0  0
    5.0810   -0.8419   -1.0341 H   0  0  0  0  0  0  0  0  0  0  0  0
    3.9036   -0.2889   -2.2104 H   0  0  0  0  0  0  0  0  0  0  0  0
    5.1411    1.5577   -1.0072 H   0  0  0  0  0  0  0  0  0  0  0  0
    4.4388    1.0391    0.5236 H   0  0  0  0  0  0  0  0  0  0  0  0
    1.4643   -0.0095   -1.3298 H   0  0  0  0  0  0  0  0  0  0  0  0
    2.8045    2.7333    1.1157 H   0  0  0  0  0  0  0  0  0  0  0  0
    2.7397    2.0613   -1.8686 H   0  0  0  0  0  0  0  0  0  0  0  0
    4.3658   -2.5409    0.5567 H   0  0  0  0  0  0  0  0  0  0  0  0
    2.5663   -3.6663    1.7921 H   0  0  0  0  0  0  0  0  0  0  0  0
   -3.5230    2.9794    0.1943 H   0  0  0  0  0  0  0  0  0  0  0  0
    0.4489   -3.6582    2.3627 H   0  0  0  0  0  0  0  0  0  0  0  0
   -1.8771   -3.6816   -2.1227 H   0  0  0  0  0  0  0  0  0  0  0  0
   -0.7016   -2.3583   -2.2640 H   0  0  0  0  0  0  0  0  0  0  0  0
   -2.4353   -2.0689   -2.6146 H   0  0  0  0  0  0  0  0  0  0  0  0
   -5.9075   -1.3254   -0.2809 H   0  0  0  0  0  0  0  0  0  0  0  0
   -5.2244   -0.2302    0.9407 H   0  0  0  0  0  0  0  0  0  0  0  0
   -4.5731   -1.8903    0.7476 H   0  0  0  0  0  0  0  0  0  0  0  0
  1 15  1  0  0  0  0
  1 24  1  0  0  0  0
  2 18  1  0  0  0  0
  2 25  1  0  0  0  0
  3 14  1  0  0  0  0
  3 42  1  0  0  0  0
  4 20  1  0  0  0  0
  4 43  1  0  0  0  0
  5  6  1  0  0  0  0
  5  7  1  0  0  0  0
  5 26  1  0  0  0  0
  5 27  1  0  0  0  0
  6 11  2  0  0  0  0
  6 14  1  0  0  0  0
  7  9  1  0  0  0  0
  7 28  1  0  0  0  0
  7 29  1  0  0  0  0
  8 10  1  0  0  0  0
  8 11  1  0  0  0  0
  8 15  2  0  0  0  0
  9 19  1  0  0  0  0
  9 30  1  0  0  0  0
  9 31  1  0  0  0  0
 10 17  1  0  0  0  0
 10 20  2  0  0  0  0
 11 32  1  0  0  0  0
 12 13  1  0  0  0  0
 12 16  1  0  0  0  0
 12 33  1  0  0  0  0
 12 34  1  0  0  0  0
 13 17  2  0  0  0  0
 13 22  1  0  0  0  0
 14 18  2  0  0  0  0
 15 18  1  0  0  0  0
 16 21  1  0  0  0  0
 16 35  1  0  0  0  0
 16 36  1  0  0  0  0
 17 37  1  0  0  0  0
 19 21  2  0  0  0  0
 19 38  1  0  0  0  0
 20 23  1  0  0  0  0
 21 39  1  0  0  0  0
 22 23  2  0  0  0  0
 22 40  1  0  0  0  0
 23 41  1  0  0  0  0
 24 44  1  0  0  0  0
 24 45  1  0  0  0  0
 24 46  1  0  0  0  0
 25 47  1  0  0  0  0
 25 48  1  0  0  0  0
 25 49  1  0  0  0  0
M  END
> <PUBCHEM_COMPOUND_CID>
102304203

> <PUBCHEM_CONFORMER_RMSD>
0.6

> <PUBCHEM_CONFORMER_DIVERSEORDER>
1
7
9
6
8
5
3
2
4

> <PUBCHEM_MMFF94_PARTIAL_CHARGES>
30
1 -0.36
11 -0.15
12 0.14
13 -0.14
14 0.08
15 0.08
16 0.14
17 -0.15
18 0.08
19 -0.29
2 -0.36
20 0.08
21 -0.29
22 -0.15
23 -0.15
24 0.28
25 0.28
3 -0.53
32 0.15
37 0.15
38 0.15
39 0.15
4 -0.53
40 0.15
41 0.15
42 0.45
43 0.45
5 0.14
6 -0.14
9 0.14

> <PUBCHEM_EFFECTIVE_ROTOR_COUNT>
3

> <PUBCHEM_PHARMACOPHORE_FEATURES>
6
1 1 acceptor
1 2 acceptor
1 3 donor
1 4 donor
6 10 13 17 20 22 23 rings
6 6 8 11 14 15 18 rings

> <PUBCHEM_HEAVY_ATOM_COUNT>
25

> <PUBCHEM_ATOM_DEF_STEREO_COUNT>
0

> <PUBCHEM_ATOM_UDEF_STEREO_COUNT>
0

> <PUBCHEM_BOND_DEF_STEREO_COUNT>
1

> <PUBCHEM_BOND_UDEF_STEREO_COUNT>
0

> <PUBCHEM_ISOTOPIC_ATOM_COUNT>
0

> <PUBCHEM_COMPONENT_COUNT>
1

> <PUBCHEM_CACTVS_TAUTO_COUNT>
998

> <PUBCHEM_CONFORMER_ID>
061909CB00000001

> <PUBCHEM_MMFF94_ENERGY>
104.3132

> <PUBCHEM_FEATURE_SELFOVERLAP>
30.452

> <PUBCHEM_SHAPE_FINGERPRINT>
10675989 125 18268427022218056945
10693767 8 17771331252716444455
10721379 63 17335002136375655767
10967382 1 18339644546026214104
1100329 8 18266180517892637441
11578080 2 17677309659571873637
12035758 1 16463046761622967963
12156800 1 13966595604005934100
12553582 1 18271516550906704735
13122387 1 17545887023221184260
13140716 1 18269834208148682801
13583140 156 17245566477455911289
13965767 371 16684571313937792040
14117953 113 16825022937443737676
14787075 74 18189340241631944499
14790565 3 18271255945603470169
14931854 50 18410019853198867340
15403338 16 15006998036011909728
17492 89 18266743480483488831
19319366 153 18261108612229554159
19591789 44 17761214719043007267
19930381 70 18265616661379174760
20642791 35 18271248325624449265
20905425 154 18271247127729695260
21857420 4 15905672247119301486
22113638 7 17399233050017685676
23227448 37 18269275823328635895
23559900 14 17914617146683818062
238 59 17263274533085593830
2748010 2 16538204974382732824
34934 24 18271240628995452319
352729 6 17838612254430839185
392239 28 18189350119861404227
463206 1 18197781213540583276
474 4 18040721406741632726
484989 97 17900554667599837602
7097593 13 17251459782007513011
7471813 234 18267001887464483870
84936 182 18334575750451638190
9709674 26 17548137083504874124
9981440 41 18047467013994805490

> <PUBCHEM_SHAPE_MULTIPOLES>
491.01
7.18
4.79
1.22
2
2.63
0.05
-0.79
1.89
-1.3
-1.12
-0.14
-0.83
-1.29

> <PUBCHEM_SHAPE_SELFOVERLAP>
1048.539

> <PUBCHEM_SHAPE_VOLUME>
271.7

> <PUBCHEM_COORDINATE_TYPE>
2
5
10

$$$$
