14311151
  -OEChem-09102006293D

 56 59  0     1  0  0  0  0  0999 V2000
    1.0746    1.4154   -0.3962 O   0  0  0  0  0  0  0  0  0  0  0  0
    0.4130    0.4336    1.6305 O   0  0  0  0  0  0  0  0  0  0  0  0
    4.2097    3.3935    1.4473 O   0  0  0  0  0  0  0  0  0  0  0  0
    3.2689    4.2664   -1.1412 O   0  0  0  0  0  0  0  0  0  0  0  0
    3.1586    0.8100    1.4154 O   0  0  0  0  0  0  0  0  0  0  0  0
    0.2721    1.8866   -2.9722 O   0  0  0  0  0  0  0  0  0  0  0  0
   -2.0933   -1.5805   -0.1993 O   0  3  0  0  0  0  0  0  0  0  0  0
   -4.2505    2.5309    1.2306 O   0  0  0  0  0  0  0  0  0  0  0  0
    3.0470   -2.8299   -1.7789 O   0  0  0  0  0  0  0  0  0  0  0  0
   -6.6658   -0.6807   -1.3156 O   0  0  0  0  0  0  0  0  0  0  0  0
    3.4097   -4.7130    0.2324 O   0  0  0  0  0  0  0  0  0  0  0  0
    2.8837    3.1723    0.9748 C   0  0  1  0  0  0  0  0  0  0  0  0
    2.9109    3.0206   -0.5484 C   0  0  1  0  0  0  0  0  0  0  0  0
    2.2919    1.9273    1.6351 C   0  0  1  0  0  0  0  0  0  0  0  0
    1.5318    2.5929   -1.0694 C   0  0  1  0  0  0  0  0  0  0  0  0
    0.9329    1.6073    1.0132 C   0  0  1  0  0  0  0  0  0  0  0  0
    1.5681    2.2831   -2.5625 C   0  0  0  0  0  0  0  0  0  0  0  0
   -0.8134    0.0871    1.1120 C   0  0  0  0  0  0  0  0  0  0  0  0
   -0.9933   -1.2174    0.3991 C   0  0  0  0  0  0  0  0  0  0  0  0
   -1.8809    0.8940    1.1641 C   0  0  0  0  0  0  0  0  0  0  0  0
   -3.1403    0.5053    0.5398 C   0  0  0  0  0  0  0  0  0  0  0  0
   -3.2040   -0.7181   -0.1351 C   0  0  0  0  0  0  0  0  0  0  0  0
    0.1684   -2.1359    0.3527 C   0  0  0  0  0  0  0  0  0  0  0  0
   -4.2690    1.3289    0.5868 C   0  0  0  0  0  0  0  0  0  0  0  0
   -4.3873   -1.1164   -0.7580 C   0  0  0  0  0  0  0  0  0  0  0  0
    1.0718   -2.0507   -0.7007 C   0  0  0  0  0  0  0  0  0  0  0  0
    0.3432   -3.0758    1.3623 C   0  0  0  0  0  0  0  0  0  0  0  0
   -5.4521    0.9278   -0.0364 C   0  0  0  0  0  0  0  0  0  0  0  0
   -5.5109   -0.2929   -0.7085 C   0  0  0  0  0  0  0  0  0  0  0  0
    2.1644   -2.9167   -0.7451 C   0  0  0  0  0  0  0  0  0  0  0  0
    1.4357   -3.9417    1.3179 C   0  0  0  0  0  0  0  0  0  0  0  0
    2.3464   -3.8621    0.2643 C   0  0  0  0  0  0  0  0  0  0  0  0
    4.1578   -1.9511   -1.6111 C   0  0  0  0  0  0  0  0  0  0  0  0
    2.2983    4.0569    1.2525 H   0  0  0  0  0  0  0  0  0  0  0  0
    3.6771    2.2908   -0.8361 H   0  0  0  0  0  0  0  0  0  0  0  0
    2.2197    2.0582    2.7203 H   0  0  0  0  0  0  0  0  0  0  0  0
    0.7902    3.3873   -0.9081 H   0  0  0  0  0  0  0  0  0  0  0  0
    0.2640    2.4578    1.2013 H   0  0  0  0  0  0  0  0  0  0  0  0
    2.2539    1.4581   -2.7827 H   0  0  0  0  0  0  0  0  0  0  0  0
    1.8654    3.1559   -3.1507 H   0  0  0  0  0  0  0  0  0  0  0  0
    4.7304    2.5949    1.2548 H   0  0  0  0  0  0  0  0  0  0  0  0
    2.5921    4.9208   -0.8976 H   0  0  0  0  0  0  0  0  0  0  0  0
    2.7279    0.0278    1.8009 H   0  0  0  0  0  0  0  0  0  0  0  0
    0.0173    1.1151   -2.4375 H   0  0  0  0  0  0  0  0  0  0  0  0
   -1.8103    1.8370    1.6908 H   0  0  0  0  0  0  0  0  0  0  0  0
   -4.4200   -2.0707   -1.2766 H   0  0  0  0  0  0  0  0  0  0  0  0
    0.9301   -1.3168   -1.4902 H   0  0  0  0  0  0  0  0  0  0  0  0
   -0.3617   -3.1451    2.1863 H   0  0  0  0  0  0  0  0  0  0  0  0
   -6.3298    1.5686    0.0004 H   0  0  0  0  0  0  0  0  0  0  0  0
    1.5655   -4.6736    2.1108 H   0  0  0  0  0  0  0  0  0  0  0  0
   -3.3526    2.8963    1.2410 H   0  0  0  0  0  0  0  0  0  0  0  0
   -6.5271   -1.5491   -1.7312 H   0  0  0  0  0  0  0  0  0  0  0  0
    3.3732   -5.2948    1.0110 H   0  0  0  0  0  0  0  0  0  0  0  0
    4.7698   -2.2613   -0.7582 H   0  0  0  0  0  0  0  0  0  0  0  0
    3.8135   -0.9211   -1.4713 H   0  0  0  0  0  0  0  0  0  0  0  0
    4.7699   -1.9955   -2.5159 H   0  0  0  0  0  0  0  0  0  0  0  0
  1 15  1  0  0  0  0
  1 16  1  0  0  0  0
  2 16  1  0  0  0  0
  2 18  1  0  0  0  0
  3 12  1  0  0  0  0
  3 41  1  0  0  0  0
  4 13  1  0  0  0  0
  4 42  1  0  0  0  0
  5 14  1  0  0  0  0
  5 43  1  0  0  0  0
  6 17  1  0  0  0  0
  6 44  1  0  0  0  0
  7 19  2  0  0  0  0
  7 22  1  0  0  0  0
  8 24  1  0  0  0  0
  8 51  1  0  0  0  0
  9 30  1  0  0  0  0
  9 33  1  0  0  0  0
 10 29  1  0  0  0  0
 10 52  1  0  0  0  0
 11 32  1  0  0  0  0
 11 53  1  0  0  0  0
 12 13  1  0  0  0  0
 12 14  1  0  0  0  0
 12 34  1  0  0  0  0
 13 15  1  0  0  0  0
 13 35  1  0  0  0  0
 14 16  1  0  0  0  0
 14 36  1  0  0  0  0
 15 17  1  0  0  0  0
 15 37  1  0  0  0  0
 16 38  1  0  0  0  0
 17 39  1  0  0  0  0
 17 40  1  0  0  0  0
 18 19  1  0  0  0  0
 18 20  2  0  0  0  0
 19 23  1  0  0  0  0
 20 21  1  0  0  0  0
 20 45  1  0  0  0  0
 21 22  1  0  0  0  0
 21 24  2  0  0  0  0
 22 25  2  0  0  0  0
 23 26  2  0  0  0  0
 23 27  1  0  0  0  0
 24 28  1  0  0  0  0
 25 29  1  0  0  0  0
 25 46  1  0  0  0  0
 26 30  1  0  0  0  0
 26 47  1  0  0  0  0
 27 31  2  0  0  0  0
 27 48  1  0  0  0  0
 28 29  2  0  0  0  0
 28 49  1  0  0  0  0
 30 32  2  0  0  0  0
 31 32  1  0  0  0  0
 31 50  1  0  0  0  0
 33 54  1  0  0  0  0
 33 55  1  0  0  0  0
 33 56  1  0  0  0  0
M  CHG  1   7   1
M  END
> <PUBCHEM_COMPOUND_CID>
14311151

> <PUBCHEM_CONFORMER_RMSD>
1

> <PUBCHEM_CONFORMER_DIVERSEORDER>
14
333
718
488
23
668
218
596
222
316
422
528
856
769
775
55
195
72
162
747
179
543
77
46
147
52
687
708
524
345
30
777
98
430
237
461
503
183
234
307
53
238
872
569
248
148
258
41
848
841
388
354
13
792
711
618
525
260
546
309
811
582
672
482
204
135
355
417
880
20
754
294
537
853
651
203
545
786
165
119
616
187
70
491
724
151
459
296
137
88
283
837
64
505
112
118
573
264
105
364
398
210
188
376
712
184
256
6
773
269
152
24
217
236
189
288
29
67
329
282
40
171
603
317
652
28
278
16
793
68
221
223
90
11
498
301
353
609
93
92
827
393
390
3
186
12
96
54
243
299
18
745
97
169
267
37
382
405
452
78
698
31
305
424
102
154
116
15
2
45
720
82
19
588
44
551
51
110
59
586
585
763
584
108
239
593
5
4
22
1
8
441
742
319
868
725
134
75
508

> <PUBCHEM_MMFF94_PARTIAL_CHARGES>
46
1 -0.56
10 -0.53
11 -0.53
12 0.28
13 0.28
14 0.28
15 0.28
16 0.56
17 0.28
18 0.09
19 0.85
2 -0.36
20 -0.18
21 0.03
22 0.92
23 0.09
24 0.08
25 -0.15
26 -0.15
27 -0.15
28 -0.15
29 0.08
3 -0.68
30 0.08
31 -0.15
32 0.08
33 0.28
4 -0.68
41 0.4
42 0.4
43 0.4
44 0.4
45 0.15
46 0.15
47 0.15
48 0.15
49 0.15
5 -0.68
50 0.15
51 0.45
52 0.45
53 0.45
6 -0.68
7 -0.87
8 -0.53
9 -0.36

> <PUBCHEM_EFFECTIVE_ROTOR_COUNT>
6.2

> <PUBCHEM_PHARMACOPHORE_FEATURES>
18
1 1 acceptor
1 10 donor
1 11 donor
1 2 acceptor
1 3 acceptor
1 3 donor
1 4 acceptor
1 4 donor
1 5 acceptor
1 5 donor
1 6 acceptor
1 6 donor
1 8 donor
1 9 acceptor
6 1 12 13 14 15 16 rings
6 21 22 24 25 28 29 rings
6 23 26 27 30 31 32 rings
6 7 18 19 20 21 22 rings

> <PUBCHEM_HEAVY_ATOM_COUNT>
33

> <PUBCHEM_ATOM_DEF_STEREO_COUNT>
0

> <PUBCHEM_ATOM_UDEF_STEREO_COUNT>
5

> <PUBCHEM_BOND_DEF_STEREO_COUNT>
0

> <PUBCHEM_BOND_UDEF_STEREO_COUNT>
0

> <PUBCHEM_ISOTOPIC_ATOM_COUNT>
0

> <PUBCHEM_COMPONENT_COUNT>
1

> <PUBCHEM_CACTVS_TAUTO_COUNT>
53

> <PUBCHEM_CONFORMER_ID>
00DA5EEF0000000E

> <PUBCHEM_MMFF94_ENERGY>
117.4886

> <PUBCHEM_FEATURE_SELFOVERLAP>
91.452

> <PUBCHEM_SHAPE_FINGERPRINT>
10675989 125 18272373117372182073
10721379 63 18342746186892311019
11045515 52 17903640674658473635
11578080 2 17898836959859145125
11582403 64 16197871826014191504
12788726 201 17180532477417471939
13004483 165 17688601458999661378
133893 2 18340220604409526107
13540713 5 18059852832404285969
14040221 304 18048568681748912309
14068700 675 17986393291298164682
14415361 192 17606110681690157266
14844126 61 15469806863073048980
14955137 171 17623888663171105555
15439362 3 18409168813649885505
1813 80 18118674422987390299
20567600 347 18198619020036764779
20642791 239 18194144948351947466
20691752 17 18042404617120238531
23366157 5 18408881807119132491
23419403 2 17980459192910282868
23559900 14 17987789714658795323
23598288 3 17322666835429402642
25222932 49 17343200116853489311
3298306 158 18127693935950018914
4017518 198 18200311156554585366
4409770 3 17401210465534046198
474 4 18261386789134780363
5081480 168 18265324015756699125
5171179 24 18118107092441633829
5265222 85 17981324805283825664
57527306 92 16035293372254388469
9981440 41 18193835070856612203

> <PUBCHEM_SHAPE_MULTIPOLES>
614.56
9.71
5.92
1.97
15.92
1.88
-0.88
-1.51
-2.21
-10.02
0.14
-1.28
-0.99
-0.1

> <PUBCHEM_SHAPE_SELFOVERLAP>
1340.914

> <PUBCHEM_SHAPE_VOLUME>
330.6

> <PUBCHEM_COORDINATE_TYPE>
2
5
10

$$$$
