467306
  -OEChem-09102006152D

100107  0     1  0  0  0  0  0999 V2000
    7.3957   -3.1386    0.0000 O   0  0  0  0  0  0  0  0  0  0  0  0
   10.1816   -0.3541    0.0000 O   0  0  0  0  0  0  0  0  0  0  0  0
    6.4520   -0.6667    0.0000 O   0  0  0  0  0  0  0  0  0  0  0  0
   11.9518    1.7047    0.0000 O   0  0  0  0  0  0  0  0  0  0  0  0
    6.5556    0.1806    0.0000 O   0  0  0  0  0  0  0  0  0  0  0  0
   10.5039   -1.1769    0.0000 O   0  0  0  0  0  0  0  0  0  0  0  0
    8.4217    2.6806    0.0000 O   0  0  0  0  0  0  0  0  0  0  0  0
   10.7046   -4.3686    0.0000 O   0  0  0  0  0  0  0  0  0  0  0  0
    4.6013   -1.3404    0.0000 O   0  0  0  0  0  0  0  0  0  0  0  0
    3.4976   -3.5572    0.0000 O   0  0  0  0  0  0  0  0  0  0  0  0
    6.1514   -5.7840    0.0000 O   0  0  0  0  0  0  0  0  0  0  0  0
    4.1817   -5.4367    0.0000 O   0  0  0  0  0  0  0  0  0  0  0  0
   14.5518    0.1464    0.0000 O   0  0  0  0  0  0  0  0  0  0  0  0
   12.8082   -2.8469    0.0000 O   0  0  0  0  0  0  0  0  0  0  0  0
   11.0800    3.2014    0.0000 O   0  0  0  0  0  0  0  0  0  0  0  0
   14.5441   -1.8536    0.0000 O   0  0  0  0  0  0  0  0  0  0  0  0
    2.2121    0.3445    0.0000 O   0  0  0  0  0  0  0  0  0  0  0  0
    4.8657    2.5711    0.0000 O   0  0  0  0  0  0  0  0  0  0  0  0
    2.8961    2.2238    0.0000 O   0  0  0  0  0  0  0  0  0  0  0  0
   13.6684    5.7114    0.0000 O   0  0  0  0  0  0  0  0  0  0  0  0
   15.4120    2.7181    0.0000 O   0  0  0  0  0  0  0  0  0  0  0  0
   15.4043    4.7180    0.0000 O   0  0  0  0  0  0  0  0  0  0  0  0
    8.0797   -1.2592    0.0000 C   0  0  1  0  0  0  0  0  0  0  0  0
    7.0949   -1.4328    0.0000 C   0  0  2  0  0  0  0  0  0  0  0  0
    8.4217   -0.3194    0.0000 C   0  0  0  0  0  0  0  0  0  0  0  0
    6.7529   -2.3725    0.0000 C   0  0  1  0  0  0  0  0  0  0  0  0
    8.7224   -2.0252    0.0000 C   0  0  0  0  0  0  0  0  0  0  0  0
    9.2877    0.1806    0.0000 C   0  0  0  0  0  0  0  0  0  0  0  0
   11.0877    1.2014    0.0000 C   0  0  1  0  0  0  0  0  0  0  0  0
    9.2877    1.1806    0.0000 C   0  0  0  0  0  0  0  0  0  0  0  0
   11.0877    0.1597    0.0000 C   0  0  1  0  0  0  0  0  0  0  0  0
   10.1816    1.7152    0.0000 C   0  0  0  0  0  0  0  0  0  0  0  0
    8.3804   -2.9649    0.0000 C   0  0  0  0  0  0  0  0  0  0  0  0
    7.5556    0.1806    0.0000 C   0  0  0  0  0  0  0  0  0  0  0  0
    6.1100   -3.1385    0.0000 C   0  0  0  0  0  0  0  0  0  0  0  0
    9.7453   -1.8285    0.0000 C   0  0  0  0  0  0  0  0  0  0  0  0
    8.4217    1.6806    0.0000 C   0  0  0  0  0  0  0  0  0  0  0  0
    7.5556    1.1806    0.0000 C   0  0  0  0  0  0  0  0  0  0  0  0
   11.9518   -0.3436    0.0000 C   0  0  0  0  0  0  0  0  0  0  0  0
    9.0376   -3.7730    0.0000 C   0  0  0  0  0  0  0  0  0  0  0  0
   10.4210   -2.6212    0.0000 C   0  0  0  0  0  0  0  0  0  0  0  0
    6.4522   -4.0782    0.0000 C   0  0  0  0  0  0  0  0  0  0  0  0
    5.1252   -2.9648    0.0000 C   0  0  0  0  0  0  0  0  0  0  0  0
   10.0647   -3.6001    0.0000 C   0  0  0  0  0  0  0  0  0  0  0  0
    5.4672   -0.8403    0.0000 C   0  0  0  0  0  0  0  0  0  0  0  0
   11.9479   -1.3436    0.0000 C   0  0  0  0  0  0  0  0  0  0  0  0
   12.8197    0.1531    0.0000 C   0  0  0  0  0  0  0  0  0  0  0  0
    4.4824   -3.7309    0.0000 C   0  0  0  0  0  0  0  0  0  0  0  0
    5.8093   -4.8443    0.0000 C   0  0  0  0  0  0  0  0  0  0  0  0
   11.9479    2.7047    0.0000 C   0  0  0  0  0  0  0  0  0  0  0  0
    4.8245   -4.6706    0.0000 C   0  0  0  0  0  0  0  0  0  0  0  0
   13.6838   -0.3503    0.0000 C   0  0  0  0  0  0  0  0  0  0  0  0
   12.8120   -1.8469    0.0000 C   0  0  0  0  0  0  0  0  0  0  0  0
    4.8245   -0.0743    0.0000 C   0  0  0  0  0  0  0  0  0  0  0  0
   13.6800   -1.3503    0.0000 C   0  0  0  0  0  0  0  0  0  0  0  0
   12.8120    3.2080    0.0000 C   0  0  0  0  0  0  0  0  0  0  0  0
    5.1665    0.8654    0.0000 C   0  0  0  0  0  0  0  0  0  0  0  0
    3.8396   -0.2479    0.0000 C   0  0  0  0  0  0  0  0  0  0  0  0
   13.6800    2.7114    0.0000 C   0  0  0  0  0  0  0  0  0  0  0  0
   12.8082    4.2080    0.0000 C   0  0  0  0  0  0  0  0  0  0  0  0
    3.1969    0.5181    0.0000 C   0  0  0  0  0  0  0  0  0  0  0  0
    4.5237    1.6314    0.0000 C   0  0  0  0  0  0  0  0  0  0  0  0
    3.5389    1.4578    0.0000 C   0  0  0  0  0  0  0  0  0  0  0  0
   13.6723    4.7114    0.0000 C   0  0  0  0  0  0  0  0  0  0  0  0
   14.5441    3.2147    0.0000 C   0  0  0  0  0  0  0  0  0  0  0  0
   14.5402    4.2147    0.0000 C   0  0  0  0  0  0  0  0  0  0  0  0
    7.5333   -0.6080    0.0000 H   0  0  0  0  0  0  0  0  0  0  0  0
    6.4843   -1.5405    0.0000 H   0  0  0  0  0  0  0  0  0  0  0  0
    6.2159   -2.0625    0.0000 H   0  0  0  0  0  0  0  0  0  0  0  0
   11.0841    1.8214    0.0000 H   0  0  0  0  0  0  0  0  0  0  0  0
   11.0841   -0.4602    0.0000 H   0  0  0  0  0  0  0  0  0  0  0  0
   10.5753    2.1942    0.0000 H   0  0  0  0  0  0  0  0  0  0  0  0
    9.7770    2.1850    0.0000 H   0  0  0  0  0  0  0  0  0  0  0  0
    7.0187    1.4906    0.0000 H   0  0  0  0  0  0  0  0  0  0  0  0
    8.8188   -4.3532    0.0000 H   0  0  0  0  0  0  0  0  0  0  0  0
   11.0312   -2.5112    0.0000 H   0  0  0  0  0  0  0  0  0  0  0  0
    7.0628   -4.1859    0.0000 H   0  0  0  0  0  0  0  0  0  0  0  0
    4.9132   -2.3822    0.0000 H   0  0  0  0  0  0  0  0  0  0  0  0
   11.4098   -1.6515    0.0000 H   0  0  0  0  0  0  0  0  0  0  0  0
   12.8221    0.7731    0.0000 H   0  0  0  0  0  0  0  0  0  0  0  0
    6.2457    0.7176    0.0000 H   0  0  0  0  0  0  0  0  0  0  0  0
   11.0889   -1.3822    0.0000 H   0  0  0  0  0  0  0  0  0  0  0  0
    7.8847    2.9906    0.0000 H   0  0  0  0  0  0  0  0  0  0  0  0
   10.4903   -4.9504    0.0000 H   0  0  0  0  0  0  0  0  0  0  0  0
    5.7771    0.9731    0.0000 H   0  0  0  0  0  0  0  0  0  0  0  0
    3.6276   -0.8305    0.0000 H   0  0  0  0  0  0  0  0  0  0  0  0
    3.0991   -4.0322    0.0000 H   0  0  0  0  0  0  0  0  0  0  0  0
    6.7619   -5.8916    0.0000 H   0  0  0  0  0  0  0  0  0  0  0  0
    4.3938   -6.0193    0.0000 H   0  0  0  0  0  0  0  0  0  0  0  0
   15.0875   -0.1657    0.0000 H   0  0  0  0  0  0  0  0  0  0  0  0
   13.3439   -3.1590    0.0000 H   0  0  0  0  0  0  0  0  0  0  0  0
   13.6824    2.0914    0.0000 H   0  0  0  0  0  0  0  0  0  0  0  0
   12.2700    4.5160    0.0000 H   0  0  0  0  0  0  0  0  0  0  0  0
   15.0822   -1.5457    0.0000 H   0  0  0  0  0  0  0  0  0  0  0  0
    2.0000   -0.2381    0.0000 H   0  0  0  0  0  0  0  0  0  0  0  0
    4.4672    3.0460    0.0000 H   0  0  0  0  0  0  0  0  0  0  0  0
    3.1081    2.8064    0.0000 H   0  0  0  0  0  0  0  0  0  0  0  0
   13.1303    6.0193    0.0000 H   0  0  0  0  0  0  0  0  0  0  0  0
   15.9478    3.0301    0.0000 H   0  0  0  0  0  0  0  0  0  0  0  0
   15.4019    5.3380    0.0000 H   0  0  0  0  0  0  0  0  0  0  0  0
  1 26  1  0  0  0  0
  1 33  1  0  0  0  0
  2 28  1  0  0  0  0
  2 31  1  0  0  0  0
 24  3  1  6  0  0  0
  3 45  1  0  0  0  0
 29  4  1  1  0  0  0
  4 50  1  0  0  0  0
  5 34  1  0  0  0  0
  5 81  1  0  0  0  0
  6 36  1  0  0  0  0
  6 82  1  0  0  0  0
  7 37  1  0  0  0  0
  7 83  1  0  0  0  0
  8 44  1  0  0  0  0
  8 84  1  0  0  0  0
  9 45  2  0  0  0  0
 10 48  1  0  0  0  0
 10 87  1  0  0  0  0
 11 49  1  0  0  0  0
 11 88  1  0  0  0  0
 12 51  1  0  0  0  0
 12 89  1  0  0  0  0
 13 52  1  0  0  0  0
 13 90  1  0  0  0  0
 14 53  1  0  0  0  0
 14 91  1  0  0  0  0
 15 50  2  0  0  0  0
 16 55  1  0  0  0  0
 16 94  1  0  0  0  0
 17 61  1  0  0  0  0
 17 95  1  0  0  0  0
 18 62  1  0  0  0  0
 18 96  1  0  0  0  0
 19 63  1  0  0  0  0
 19 97  1  0  0  0  0
 20 64  1  0  0  0  0
 20 98  1  0  0  0  0
 21 65  1  0  0  0  0
 21 99  1  0  0  0  0
 22 66  1  0  0  0  0
 22100  1  0  0  0  0
 23 24  1  0  0  0  0
 23 25  1  0  0  0  0
 23 27  1  0  0  0  0
 23 67  1  6  0  0  0
 24 26  1  0  0  0  0
 24 68  1  0  0  0  0
 25 28  1  0  0  0  0
 25 34  2  0  0  0  0
 26 35  1  6  0  0  0
 26 69  1  0  0  0  0
 27 33  1  0  0  0  0
 27 36  2  0  0  0  0
 28 30  2  0  0  0  0
 29 31  1  0  0  0  0
 29 32  1  0  0  0  0
 29 70  1  0  0  0  0
 30 32  1  0  0  0  0
 30 37  1  0  0  0  0
 31 39  1  1  0  0  0
 31 71  1  0  0  0  0
 32 72  1  0  0  0  0
 32 73  1  0  0  0  0
 33 40  2  0  0  0  0
 34 38  1  0  0  0  0
 35 42  2  0  0  0  0
 35 43  1  0  0  0  0
 36 41  1  0  0  0  0
 37 38  2  0  0  0  0
 38 74  1  0  0  0  0
 39 46  2  0  0  0  0
 39 47  1  0  0  0  0
 40 44  1  0  0  0  0
 40 75  1  0  0  0  0
 41 44  2  0  0  0  0
 41 76  1  0  0  0  0
 42 49  1  0  0  0  0
 42 77  1  0  0  0  0
 43 48  2  0  0  0  0
 43 78  1  0  0  0  0
 45 54  1  0  0  0  0
 46 53  1  0  0  0  0
 46 79  1  0  0  0  0
 47 52  2  0  0  0  0
 47 80  1  0  0  0  0
 48 51  1  0  0  0  0
 49 51  2  0  0  0  0
 50 56  1  0  0  0  0
 52 55  1  0  0  0  0
 53 55  2  0  0  0  0
 54 57  2  0  0  0  0
 54 58  1  0  0  0  0
 56 59  2  0  0  0  0
 56 60  1  0  0  0  0
 57 62  1  0  0  0  0
 57 85  1  0  0  0  0
 58 61  2  0  0  0  0
 58 86  1  0  0  0  0
 59 65  1  0  0  0  0
 59 92  1  0  0  0  0
 60 64  2  0  0  0  0
 60 93  1  0  0  0  0
 61 63  1  0  0  0  0
 62 63  2  0  0  0  0
 64 66  1  0  0  0  0
 65 66  2  0  0  0  0
M  END
> <PUBCHEM_COMPOUND_CID>
467306

> <PUBCHEM_COMPOUND_CANONICALIZED>
1

> <PUBCHEM_CACTVS_COMPLEXITY>
1630

> <PUBCHEM_CACTVS_HBOND_ACCEPTOR>
22

> <PUBCHEM_CACTVS_HBOND_DONOR>
16

> <PUBCHEM_CACTVS_ROTATABLE_BOND>
9

> <PUBCHEM_CACTVS_SUBSKEYS>
AAADcfB8PgAAAAAAAAAAAAAAAAAAAAAAAAA0aMGDAAAAAACRVAAAGgAACAAADRSgmAIwDoAABgCIAiDSCAACCAAkIAAAiAEGiMgNJzKGNRqCeSGlwBULuYfK7PzOoAADCAAIQABAAAYQABCAAAAAAAAAAA==

> <PUBCHEM_IUPAC_OPENEYE_NAME>
[(2R,3R)-8-[(2R,3R,4R)-5,7-dihydroxy-3-(3,4,5-trihydroxybenzoyl)oxy-2-(3,4,5-trihydroxyphenyl)chroman-4-yl]-5,7-dihydroxy-2-(3,4,5-trihydroxyphenyl)chroman-3-yl] 3,4,5-trihydroxybenzoate

> <PUBCHEM_IUPAC_CAS_NAME>
3,4,5-trihydroxybenzoic acid [(2R,3R)-8-[(2R,3R,4R)-5,7-dihydroxy-3-[oxo-(3,4,5-trihydroxyphenyl)methoxy]-2-(3,4,5-trihydroxyphenyl)-3,4-dihydro-2H-1-benzopyran-4-yl]-5,7-dihydroxy-2-(3,4,5-trihydroxyphenyl)-3,4-dihydro-2H-1-benzopyran-3-yl] ester

> <PUBCHEM_IUPAC_NAME_MARKUP>
[(2<I>R</I>,3<I>R</I>)-8-[(2<I>R</I>,3<I>R</I>,4<I>R</I>)-5,7-dihydroxy-3-(3,4,5-trihydroxybenzoyl)oxy-2-(3,4,5-trihydroxyphenyl)-3,4-dihydro-2<I>H</I>-chromen-4-yl]-5,7-dihydroxy-2-(3,4,5-trihydroxyphenyl)-3,4-dihydro-2<I>H</I>-chromen-3-yl] 3,4,5-trihydroxybenzoate

> <PUBCHEM_IUPAC_NAME>
[(2R,3R)-8-[(2R,3R,4R)-5,7-dihydroxy-3-(3,4,5-trihydroxybenzoyl)oxy-2-(3,4,5-trihydroxyphenyl)-3,4-dihydro-2H-chromen-4-yl]-5,7-dihydroxy-2-(3,4,5-trihydroxyphenyl)-3,4-dihydro-2H-chromen-3-yl] 3,4,5-trihydroxybenzoate

> <PUBCHEM_IUPAC_SYSTEMATIC_NAME>
[(2R,3R)-8-[(2R,3R,4R)-5,7-bis(oxidanyl)-2-[3,4,5-tris(oxidanyl)phenyl]-3-[3,4,5-tris(oxidanyl)phenyl]carbonyloxy-3,4-dihydro-2H-chromen-4-yl]-5,7-bis(oxidanyl)-2-[3,4,5-tris(oxidanyl)phenyl]-3,4-dihydro-2H-chromen-3-yl] 3,4,5-tris(oxidanyl)benzoate

> <PUBCHEM_IUPAC_TRADITIONAL_NAME>
3,4,5-trihydroxybenzoic acid [(2R,3R)-8-[(2R,3R,4R)-3-galloyloxy-5,7-dihydroxy-2-(3,4,5-trihydroxyphenyl)chroman-4-yl]-5,7-dihydroxy-2-(3,4,5-trihydroxyphenyl)chroman-3-yl] ester

> <PUBCHEM_IUPAC_INCHI>
InChI=1S/C44H34O22/c45-17-9-20(47)32-30(10-17)63-40(14-3-24(51)36(58)25(52)4-14)42(66-44(62)16-7-28(55)38(60)29(56)8-16)34(32)33-21(48)12-19(46)18-11-31(64-43(61)15-5-26(53)37(59)27(54)6-15)39(65-41(18)33)13-1-22(49)35(57)23(50)2-13/h1-10,12,31,34,39-40,42,45-60H,11H2/t31-,34-,39-,40-,42-/m1/s1

> <PUBCHEM_IUPAC_INCHIKEY>
OBAZBWUNTJYECH-SHHRIEJHSA-N

> <PUBCHEM_XLOGP3_AA>
4

> <PUBCHEM_EXACT_MASS>
914.154173

> <PUBCHEM_MOLECULAR_FORMULA>
C44H34O22

> <PUBCHEM_MOLECULAR_WEIGHT>
914.7

> <PUBCHEM_OPENEYE_CAN_SMILES>
C1C(C(OC2=C1C(=CC(=C2C3C(C(OC4=CC(=CC(=C34)O)O)C5=CC(=C(C(=C5)O)O)O)OC(=O)C6=CC(=C(C(=C6)O)O)O)O)O)C7=CC(=C(C(=C7)O)O)O)OC(=O)C8=CC(=C(C(=C8)O)O)O

> <PUBCHEM_OPENEYE_ISO_SMILES>
C1[C@H]([C@H](OC2=C1C(=CC(=C2[C@@H]3[C@H]([C@H](OC4=CC(=CC(=C34)O)O)C5=CC(=C(C(=C5)O)O)O)OC(=O)C6=CC(=C(C(=C6)O)O)O)O)O)C7=CC(=C(C(=C7)O)O)O)OC(=O)C8=CC(=C(C(=C8)O)O)O

> <PUBCHEM_CACTVS_TPSA>
395

> <PUBCHEM_MONOISOTOPIC_WEIGHT>
914.154173

> <PUBCHEM_TOTAL_CHARGE>
0

> <PUBCHEM_HEAVY_ATOM_COUNT>
66

> <PUBCHEM_ATOM_DEF_STEREO_COUNT>
5

> <PUBCHEM_ATOM_UDEF_STEREO_COUNT>
0

> <PUBCHEM_BOND_DEF_STEREO_COUNT>
0

> <PUBCHEM_BOND_UDEF_STEREO_COUNT>
0

> <PUBCHEM_ISOTOPIC_ATOM_COUNT>
0

> <PUBCHEM_COMPONENT_COUNT>
1

> <PUBCHEM_CACTVS_TAUTO_COUNT>
-1

> <PUBCHEM_COORDINATE_TYPE>
1
5
255

> <PUBCHEM_BONDANNOTATIONS>
23  67  6
25  28  8
25  34  8
26  35  6
27  33  8
27  36  8
28  30  8
24  3  6
30  37  8
31  39  5
33  40  8
34  38  8
35  42  8
35  43  8
36  41  8
37  38  8
39  46  8
39  47  8
29  4  5
40  44  8
41  44  8
42  49  8
43  48  8
46  53  8
47  52  8
48  51  8
49  51  8
52  55  8
53  55  8
54  57  8
54  58  8
56  59  8
56  60  8
57  62  8
58  61  8
59  65  8
60  64  8
61  63  8
62  63  8
64  66  8
65  66  8

$$$$
