14059610
  -OEChem-09102006082D

 73 76  0     1  0  0  0  0  0999 V2000
    5.1350   -1.2947    0.0000 O   0  0  0  0  0  0  0  0  0  0  0  0
    6.8671   -1.2947    0.0000 O   0  0  0  0  0  0  0  0  0  0  0  0
    5.1350   -4.2947    0.0000 O   0  0  0  0  0  0  0  0  0  0  0  0
    3.4030   -3.2947    0.0000 O   0  0  0  0  0  0  0  0  0  0  0  0
    6.8671   -3.2947    0.0000 O   0  0  0  0  0  0  0  0  0  0  0  0
    2.5369   -1.7947    0.0000 O   0  0  0  0  0  0  0  0  0  0  0  0
    8.5367    2.6530    0.0000 O   0  0  0  0  0  0  0  0  0  0  0  0
    5.1524   -0.3048    0.0000 O   0  0  0  0  0  0  0  0  0  0  0  0
    5.1524    1.6751    0.0000 O   0  0  0  0  0  0  0  0  0  0  0  0
    5.1524    2.6349    0.0000 O   0  0  0  0  0  0  0  0  0  0  0  0
    5.1350   -3.2947    0.0000 C   0  0  3  0  0  0  0  0  0  0  0  0
    4.2690   -2.7947    0.0000 C   0  0  3  0  0  0  0  0  0  0  0  0
    6.0010   -2.7947    0.0000 C   0  0  3  0  0  0  0  0  0  0  0  0
    4.2690   -1.7947    0.0000 C   0  0  3  0  0  0  0  0  0  0  0  0
    6.0010   -1.7947    0.0000 C   0  0  3  0  0  0  0  0  0  0  0  0
    3.4030   -1.2947    0.0000 C   0  0  0  0  0  0  0  0  0  0  0  0
    6.8671   -0.2947    0.0000 C   0  0  0  0  0  0  0  0  0  0  0  0
    7.7157    0.1952    0.0000 C   0  0  0  0  0  0  0  0  0  0  0  0
    8.5643   -0.2947    0.0000 C   0  0  0  0  0  0  0  0  0  0  0  0
    9.4129    0.1952    0.0000 C   0  0  0  0  0  0  0  0  0  0  0  0
    9.4129    1.1751    0.0000 C   0  0  0  0  0  0  0  0  0  0  0  0
   10.0898    2.1223    0.0000 C   0  0  0  0  0  0  0  0  0  0  0  0
    9.4129    3.1349    0.0000 C   0  0  3  0  0  0  0  0  0  0  0  0
    9.4129    4.1148    0.0000 C   0  0  0  0  0  0  0  0  0  0  0  0
    6.0185    0.1952    0.0000 C   0  0  0  0  0  0  0  0  0  0  0  0
    7.7157    1.1751    0.0000 C   0  0  0  0  0  0  0  0  0  0  0  0
    6.8671    1.6651    0.0000 C   0  0  0  0  0  0  0  0  0  0  0  0
    8.5643    4.6047    0.0000 C   0  0  0  0  0  0  0  0  0  0  0  0
    6.0185    1.1751    0.0000 C   0  0  0  0  0  0  0  0  0  0  0  0
    6.8671    2.6449    0.0000 C   0  0  0  0  0  0  0  0  0  0  0  0
    7.7157    4.1148    0.0000 C   0  0  0  0  0  0  0  0  0  0  0  0
    7.7157    3.1349    0.0000 C   0  0  0  0  0  0  0  0  0  0  0  0
    6.0185    3.1349    0.0000 C   0  0  0  0  0  0  0  0  0  0  0  0
    6.8671    4.6047    0.0000 C   0  0  0  0  0  0  0  0  0  0  0  0
    6.0185    4.1148    0.0000 C   0  0  0  0  0  0  0  0  0  0  0  0
    4.2864    0.1952    0.0000 C   0  0  0  0  0  0  0  0  0  0  0  0
    4.2864    1.1751    0.0000 C   0  0  0  0  0  0  0  0  0  0  0  0
    4.5981   -3.6047    0.0000 H   0  0  0  0  0  0  0  0  0  0  0  0
    4.2690   -3.4147    0.0000 H   0  0  0  0  0  0  0  0  0  0  0  0
    6.0010   -3.4147    0.0000 H   0  0  0  0  0  0  0  0  0  0  0  0
    4.2690   -1.1747    0.0000 H   0  0  0  0  0  0  0  0  0  0  0  0
    6.0010   -1.1747    0.0000 H   0  0  0  0  0  0  0  0  0  0  0  0
    3.8015   -0.8198    0.0000 H   0  0  0  0  0  0  0  0  0  0  0  0
    3.0044   -0.8198    0.0000 H   0  0  0  0  0  0  0  0  0  0  0  0
    8.1657   -0.7697    0.0000 H   0  0  0  0  0  0  0  0  0  0  0  0
    8.9628   -0.7697    0.0000 H   0  0  0  0  0  0  0  0  0  0  0  0
    9.6249   -0.3874    0.0000 H   0  0  0  0  0  0  0  0  0  0  0  0
   10.0235    0.3029    0.0000 H   0  0  0  0  0  0  0  0  0  0  0  0
    9.0458    1.6748    0.0000 H   0  0  0  0  0  0  0  0  0  0  0  0
   10.0033    0.9858    0.0000 H   0  0  0  0  0  0  0  0  0  0  0  0
   10.5473    1.7039    0.0000 H   0  0  0  0  0  0  0  0  0  0  0  0
   10.5601    2.5263    0.0000 H   0  0  0  0  0  0  0  0  0  0  0  0
    8.8792    3.4504    0.0000 H   0  0  0  0  0  0  0  0  0  0  0  0
    4.5981   -4.6047    0.0000 H   0  0  0  0  0  0  0  0  0  0  0  0
    3.4030   -3.9147    0.0000 H   0  0  0  0  0  0  0  0  0  0  0  0
    6.8671   -3.9147    0.0000 H   0  0  0  0  0  0  0  0  0  0  0  0
   10.0235    4.0071    0.0000 H   0  0  0  0  0  0  0  0  0  0  0  0
    9.6249    4.6974    0.0000 H   0  0  0  0  0  0  0  0  0  0  0  0
    8.2526    1.4851    0.0000 H   0  0  0  0  0  0  0  0  0  0  0  0
    8.9628    5.0797    0.0000 H   0  0  0  0  0  0  0  0  0  0  0  0
    8.1657    5.0797    0.0000 H   0  0  0  0  0  0  0  0  0  0  0  0
    2.0000   -1.4847    0.0000 H   0  0  0  0  0  0  0  0  0  0  0  0
    8.2526    2.8249    0.0000 H   0  0  0  0  0  0  0  0  0  0  0  0
    6.8671    5.2247    0.0000 H   0  0  0  0  0  0  0  0  0  0  0  0
    8.5238    2.0331    0.0000 H   0  0  0  0  0  0  0  0  0  0  0  0
    5.4815    4.4248    0.0000 H   0  0  0  0  0  0  0  0  0  0  0  0
    4.5964    0.7322    0.0000 H   0  0  0  0  0  0  0  0  0  0  0  0
    3.7495    0.5052    0.0000 H   0  0  0  0  0  0  0  0  0  0  0  0
    3.9764   -0.3417    0.0000 H   0  0  0  0  0  0  0  0  0  0  0  0
    3.9764    1.7121    0.0000 H   0  0  0  0  0  0  0  0  0  0  0  0
    3.7495    0.8651    0.0000 H   0  0  0  0  0  0  0  0  0  0  0  0
    4.5964    0.6382    0.0000 H   0  0  0  0  0  0  0  0  0  0  0  0
    4.6155    2.9449    0.0000 H   0  0  0  0  0  0  0  0  0  0  0  0
  1 14  1  0  0  0  0
  1 15  1  0  0  0  0
  2 15  1  0  0  0  0
  2 17  1  0  0  0  0
  3 11  1  0  0  0  0
  3 54  1  0  0  0  0
  4 12  1  0  0  0  0
  4 55  1  0  0  0  0
  5 13  1  0  0  0  0
  5 56  1  0  0  0  0
  6 16  1  0  0  0  0
  6 62  1  0  0  0  0
  7 23  1  0  0  0  0
  7 65  1  0  0  0  0
  8 25  1  0  0  0  0
  8 36  1  0  0  0  0
  9 29  1  0  0  0  0
  9 37  1  0  0  0  0
 10 33  1  0  0  0  0
 10 73  1  0  0  0  0
 11 12  1  0  0  0  0
 11 13  1  0  0  0  0
 11 38  1  0  0  0  0
 12 14  1  0  0  0  0
 12 39  1  0  0  0  0
 13 15  1  0  0  0  0
 13 40  1  0  0  0  0
 14 16  1  0  0  0  0
 14 41  1  0  0  0  0
 15 42  1  0  0  0  0
 16 43  1  0  0  0  0
 16 44  1  0  0  0  0
 17 18  1  0  0  0  0
 17 25  2  0  0  0  0
 18 19  1  0  0  0  0
 18 26  2  0  0  0  0
 19 20  1  0  0  0  0
 19 45  1  0  0  0  0
 19 46  1  0  0  0  0
 20 21  1  0  0  0  0
 20 47  1  0  0  0  0
 20 48  1  0  0  0  0
 21 22  1  0  0  0  0
 21 49  1  0  0  0  0
 21 50  1  0  0  0  0
 22 23  1  0  0  0  0
 22 51  1  0  0  0  0
 22 52  1  0  0  0  0
 23 24  1  0  0  0  0
 23 53  1  0  0  0  0
 24 28  1  0  0  0  0
 24 57  1  0  0  0  0
 24 58  1  0  0  0  0
 25 29  1  0  0  0  0
 26 27  1  0  0  0  0
 26 59  1  0  0  0  0
 27 29  2  0  0  0  0
 27 30  1  0  0  0  0
 28 31  1  0  0  0  0
 28 60  1  0  0  0  0
 28 61  1  0  0  0  0
 30 32  1  0  0  0  0
 30 33  2  0  0  0  0
 31 32  2  0  0  0  0
 31 34  1  0  0  0  0
 32 63  1  0  0  0  0
 33 35  1  0  0  0  0
 34 35  2  0  0  0  0
 34 64  1  0  0  0  0
 35 66  1  0  0  0  0
 36 67  1  0  0  0  0
 36 68  1  0  0  0  0
 36 69  1  0  0  0  0
 37 70  1  0  0  0  0
 37 71  1  0  0  0  0
 37 72  1  0  0  0  0
M  END
> <PUBCHEM_COMPOUND_CID>
14059610

> <PUBCHEM_COMPOUND_CANONICALIZED>
1

> <PUBCHEM_CACTVS_COMPLEXITY>
696

> <PUBCHEM_CACTVS_HBOND_ACCEPTOR>
10

> <PUBCHEM_CACTVS_HBOND_DONOR>
6

> <PUBCHEM_CACTVS_ROTATABLE_BOND>
5

> <PUBCHEM_CACTVS_SUBSKEYS>
AAADcfB4PAAAAAAAAAAAAAAAAAAAAAAAAAA0YIAAAAAAAAABQAAAGgAACAAADBSwmAMyDoAABgCAAiBCAAACCAAgIAAIiAAGiIgdNyKGMRqieCKlwBUPuAfA4PwOoAADCAAIQABAAAYQABCAAAAAAAAAAA==

> <PUBCHEM_IUPAC_OPENEYE_NAME>
2-[(11,17-dihydroxy-3,4-dimethoxy-5-tricyclo[12.3.1.12,6]nonadeca-1(17),2,4,6(19),14(18),15-hexaenyl)oxy]-6-(hydroxymethyl)tetrahydropyran-3,4,5-triol

> <PUBCHEM_IUPAC_CAS_NAME>
2-[(11,17-dihydroxy-3,4-dimethoxy-5-tricyclo[12.3.1.12,6]nonadeca-1(17),2,4,6(19),14(18),15-hexaenyl)oxy]-6-(hydroxymethyl)oxane-3,4,5-triol

> <PUBCHEM_IUPAC_NAME_MARKUP>
2-[(11,17-dihydroxy-3,4-dimethoxy-5-tricyclo[12.3.1.1<SUP>2,6</SUP>]nonadeca-1(17),2,4,6(19),14(18),15-hexaenyl)oxy]-6-(hydroxymethyl)oxane-3,4,5-triol

> <PUBCHEM_IUPAC_NAME>
2-[(11,17-dihydroxy-3,4-dimethoxy-5-tricyclo[12.3.1.12,6]nonadeca-1(17),2,4,6(19),14(18),15-hexaenyl)oxy]-6-(hydroxymethyl)oxane-3,4,5-triol

> <PUBCHEM_IUPAC_SYSTEMATIC_NAME>
2-[[3,4-dimethoxy-11,17-bis(oxidanyl)-5-tricyclo[12.3.1.12,6]nonadeca-1(17),2,4,6(19),14(18),15-hexaenyl]oxy]-6-(hydroxymethyl)oxane-3,4,5-triol

> <PUBCHEM_IUPAC_TRADITIONAL_NAME>
2-[(11,17-dihydroxy-3,4-dimethoxy-5-tricyclo[12.3.1.12,6]nonadeca-1(17),2,4,6(19),14(18),15-hexaenyl)oxy]-6-methylol-tetrahydropyran-3,4,5-triol

> <PUBCHEM_IUPAC_INCHI>
InChI=1S/C27H36O10/c1-34-25-18-12-15(5-3-4-6-16(29)9-7-14-8-10-19(30)17(18)11-14)24(26(25)35-2)37-27-23(33)22(32)21(31)20(13-28)36-27/h8,10-12,16,20-23,27-33H,3-7,9,13H2,1-2H3

> <PUBCHEM_IUPAC_INCHIKEY>
NPSYWDNXSMBWKP-UHFFFAOYSA-N

> <PUBCHEM_XLOGP3_AA>
2.3

> <PUBCHEM_EXACT_MASS>
520.230847

> <PUBCHEM_MOLECULAR_FORMULA>
C27H36O10

> <PUBCHEM_MOLECULAR_WEIGHT>
520.6

> <PUBCHEM_OPENEYE_CAN_SMILES>
COC1=C2C=C(CCCCC(CCC3=CC2=C(C=C3)O)O)C(=C1OC)OC4C(C(C(C(O4)CO)O)O)O

> <PUBCHEM_OPENEYE_ISO_SMILES>
COC1=C2C=C(CCCCC(CCC3=CC2=C(C=C3)O)O)C(=C1OC)OC4C(C(C(C(O4)CO)O)O)O

> <PUBCHEM_CACTVS_TPSA>
158

> <PUBCHEM_MONOISOTOPIC_WEIGHT>
520.230847

> <PUBCHEM_TOTAL_CHARGE>
0

> <PUBCHEM_HEAVY_ATOM_COUNT>
37

> <PUBCHEM_ATOM_DEF_STEREO_COUNT>
0

> <PUBCHEM_ATOM_UDEF_STEREO_COUNT>
6

> <PUBCHEM_BOND_DEF_STEREO_COUNT>
0

> <PUBCHEM_BOND_UDEF_STEREO_COUNT>
0

> <PUBCHEM_ISOTOPIC_ATOM_COUNT>
0

> <PUBCHEM_COMPONENT_COUNT>
1

> <PUBCHEM_CACTVS_TAUTO_COUNT>
-1

> <PUBCHEM_COORDINATE_TYPE>
1
5
255

> <PUBCHEM_BONDANNOTATIONS>
14  16  3
17  18  8
17  25  8
18  26  8
15  2  3
25  29  8
26  27  8
27  29  8
11  3  3
30  32  8
30  33  8
31  32  8
31  34  8
33  35  8
34  35  8
12  4  3
13  5  3
23  7  3

$$$$
