6429376
  -OEChem-11202002343D

 39 40  0     1  0  0  0  0  0999 V2000
    0.7463    0.2771    0.6305 C   0  0  1  0  0  0  0  0  0  0  0  0
    1.4209    1.2080   -0.4410 C   0  0  2  0  0  0  0  0  0  0  0  0
   -0.7866    0.5429    0.7705 C   0  0  0  0  0  0  0  0  0  0  0  0
    1.0101   -1.1646    0.1775 C   0  0  0  0  0  0  0  0  0  0  0  0
   -1.6224   -0.1245   -0.3280 C   0  0  1  0  0  0  0  0  0  0  0  0
    2.9095    0.8465   -0.6761 C   0  0  0  0  0  0  0  0  0  0  0  0
    2.4593   -1.5532    0.0295 C   0  0  0  0  0  0  0  0  0  0  0  0
    3.1221   -0.6342   -0.9933 C   0  0  0  0  0  0  0  0  0  0  0  0
    1.3460    0.5074    2.0403 C   0  0  0  0  0  0  0  0  0  0  0  0
   -1.4138   -1.6435   -0.2687 C   0  0  0  0  0  0  0  0  0  0  0  0
    0.0345   -2.0153   -0.1878 C   0  0  0  0  0  0  0  0  0  0  0  0
    1.3295    2.7091   -0.1350 C   0  0  0  0  0  0  0  0  0  0  0  0
   -3.0763    0.2154   -0.1865 C   0  0  0  0  0  0  0  0  0  0  0  0
   -3.7027    0.9365   -1.3430 C   0  0  0  0  0  0  0  0  0  0  0  0
   -3.7764   -0.1076    0.9110 C   0  0  0  0  0  0  0  0  0  0  0  0
    0.9050    1.0520   -1.3992 H   0  0  0  0  0  0  0  0  0  0  0  0
   -0.9949    1.6177    0.8046 H   0  0  0  0  0  0  0  0  0  0  0  0
   -1.1158    0.1578    1.7471 H   0  0  0  0  0  0  0  0  0  0  0  0
   -1.2664    0.2367   -1.3021 H   0  0  0  0  0  0  0  0  0  0  0  0
    3.5094    1.1176    0.2010 H   0  0  0  0  0  0  0  0  0  0  0  0
    3.3037    1.4417   -1.5095 H   0  0  0  0  0  0  0  0  0  0  0  0
    2.9719   -1.4886    0.9954 H   0  0  0  0  0  0  0  0  0  0  0  0
    2.5661   -2.5924   -0.3039 H   0  0  0  0  0  0  0  0  0  0  0  0
    4.1959   -0.8489   -1.0401 H   0  0  0  0  0  0  0  0  0  0  0  0
    2.7156   -0.8464   -1.9908 H   0  0  0  0  0  0  0  0  0  0  0  0
    0.9919   -0.2537    2.7465 H   0  0  0  0  0  0  0  0  0  0  0  0
    2.4389    0.4700    2.0527 H   0  0  0  0  0  0  0  0  0  0  0  0
    1.0509    1.4831    2.4425 H   0  0  0  0  0  0  0  0  0  0  0  0
   -1.8416   -2.0958   -1.1727 H   0  0  0  0  0  0  0  0  0  0  0  0
   -1.9225   -2.1066    0.5850 H   0  0  0  0  0  0  0  0  0  0  0  0
    0.2887   -3.0223   -0.5089 H   0  0  0  0  0  0  0  0  0  0  0  0
    1.8311    2.9653    0.8031 H   0  0  0  0  0  0  0  0  0  0  0  0
    1.8104    3.2893   -0.9310 H   0  0  0  0  0  0  0  0  0  0  0  0
    0.2937    3.0527   -0.0789 H   0  0  0  0  0  0  0  0  0  0  0  0
   -3.1937    1.8903   -1.5167 H   0  0  0  0  0  0  0  0  0  0  0  0
   -3.6305    0.3312   -2.2526 H   0  0  0  0  0  0  0  0  0  0  0  0
   -4.7624    1.1516   -1.1697 H   0  0  0  0  0  0  0  0  0  0  0  0
   -4.8283    0.1458    0.9968 H   0  0  0  0  0  0  0  0  0  0  0  0
   -3.3316   -0.6272    1.7522 H   0  0  0  0  0  0  0  0  0  0  0  0
  1  2  1  0  0  0  0
  1  3  1  0  0  0  0
  1  4  1  0  0  0  0
  1  9  1  0  0  0  0
  2  6  1  0  0  0  0
  2 12  1  0  0  0  0
  2 16  1  0  0  0  0
  3  5  1  0  0  0  0
  3 17  1  0  0  0  0
  3 18  1  0  0  0  0
  4  7  1  0  0  0  0
  4 11  2  0  0  0  0
  5 10  1  0  0  0  0
  5 13  1  0  0  0  0
  5 19  1  0  0  0  0
  6  8  1  0  0  0  0
  6 20  1  0  0  0  0
  6 21  1  0  0  0  0
  7  8  1  0  0  0  0
  7 22  1  0  0  0  0
  7 23  1  0  0  0  0
  8 24  1  0  0  0  0
  8 25  1  0  0  0  0
  9 26  1  0  0  0  0
  9 27  1  0  0  0  0
  9 28  1  0  0  0  0
 10 11  1  0  0  0  0
 10 29  1  0  0  0  0
 10 30  1  0  0  0  0
 11 31  1  0  0  0  0
 12 32  1  0  0  0  0
 12 33  1  0  0  0  0
 12 34  1  0  0  0  0
 13 14  1  0  0  0  0
 13 15  2  0  0  0  0
 14 35  1  0  0  0  0
 14 36  1  0  0  0  0
 14 37  1  0  0  0  0
 15 38  1  0  0  0  0
 15 39  1  0  0  0  0
M  END
> <PUBCHEM_COMPOUND_CID>
6429376

> <PUBCHEM_CONFORMER_RMSD>
0.6

> <PUBCHEM_CONFORMER_DIVERSEORDER>
1
3
4
2

> <PUBCHEM_MMFF94_PARTIAL_CHARGES>
12
1 0.14
10 0.14
11 -0.29
13 -0.28
14 0.14
15 -0.3
31 0.15
38 0.15
39 0.15
4 -0.28
5 0.14
7 0.14

> <PUBCHEM_EFFECTIVE_ROTOR_COUNT>
2.4

> <PUBCHEM_PHARMACOPHORE_FEATURES>
2
6 1 2 4 6 7 8 rings
6 1 3 4 5 10 11 rings

> <PUBCHEM_HEAVY_ATOM_COUNT>
15

> <PUBCHEM_ATOM_DEF_STEREO_COUNT>
2

> <PUBCHEM_ATOM_UDEF_STEREO_COUNT>
1

> <PUBCHEM_BOND_DEF_STEREO_COUNT>
0

> <PUBCHEM_BOND_UDEF_STEREO_COUNT>
0

> <PUBCHEM_ISOTOPIC_ATOM_COUNT>
0

> <PUBCHEM_COMPONENT_COUNT>
1

> <PUBCHEM_CACTVS_TAUTO_COUNT>
1

> <PUBCHEM_CONFORMER_ID>
00621AC000000001

> <PUBCHEM_MMFF94_ENERGY>
32.2877

> <PUBCHEM_FEATURE_SELFOVERLAP>
10.186

> <PUBCHEM_SHAPE_FINGERPRINT>
104564 63 17912933776911439129
11031198 65 17968108537582476134
11471102 20 18410576167321904759
12423570 1 13947872565608645480
12654215 9 18262227820529104124
12654903 92 18411139151455865820
12932764 1 17530960294017413251
13380535 21 18266188407615450811
13380536 243 18409446960010799406
13380536 305 18410579504284711786
13464514 151 17346036804643552760
14289901 80 16370734742151709385
14350558 41 12607401117785467589
14648413 74 18264774439925313232
14817 1 16455391429542417280
14993402 34 18340211799636943614
15219456 202 18114185216069273519
15279308 100 18407754841833319589
15775835 57 18261402190481237646
16945 1 18341616988234488970
17844478 74 18040447598339404987
18186145 218 18343588447053411213
18981168 100 18264474260450314301
20233049 118 18114175294399661372
20339313 130 18340212898937425226
20511035 2 18058720437552518518
21501502 16 18196372734781999463
21524375 3 17539967694798721432
22802520 49 18196383738545961190
231179 274 17749383754594577253
2334 1 18125715931637821795
23402539 116 18059298634950719942
23419403 2 17101768184783400560
23493267 7 17749391417074650641
23559900 14 18059300980678362836
25 1 18334863800611835502
2748010 2 18199183077991664603
296302 2 15697998543964656218
3060560 45 18409158905323435719
353137 74 18340776957050613136
528886 8 18409169930588925478
549884 4 17988640826288335625
63268167 104 18409174307028646872
7364860 26 18272088357003471552
74978 22 18341609356293712959
81228 2 16325128842441765163

> <PUBCHEM_SHAPE_MULTIPOLES>
308.69
5.56
2.08
1.26
4.15
0.35
-0.41
0.58
1.35
-1.03
0.27
0
0.26
0.29

> <PUBCHEM_SHAPE_SELFOVERLAP>
630.175

> <PUBCHEM_SHAPE_VOLUME>
178.5

> <PUBCHEM_COORDINATE_TYPE>
2
5
10

$$$$
