101422868
  -OEChem-11202002143D

 52 53  0     0  0  0  0  0  0999 V2000
    5.0848   -2.6831    1.3368 O   0  0  0  0  0  0  0  0  0  0  0  0
    6.6880   -2.8650   -0.4533 O   0  0  0  0  0  0  0  0  0  0  0  0
   -5.9187   -0.6632    1.4782 O   0  0  0  0  0  0  0  0  0  0  0  0
   -6.1396   -1.7956   -0.5360 N   0  0  0  0  0  0  0  0  0  0  0  0
    0.3000    2.9748    0.0778 C   0  0  0  0  0  0  0  0  0  0  0  0
   -0.5035    4.2780    0.1398 C   0  0  0  0  0  0  0  0  0  0  0  0
    1.6960    3.1576    0.6788 C   0  0  0  0  0  0  0  0  0  0  0  0
   -1.8838    4.1757   -0.5178 C   0  0  0  0  0  0  0  0  0  0  0  0
    2.5004    1.8920    0.5827 C   0  0  0  0  0  0  0  0  0  0  0  0
    4.4734    0.5834   -0.2185 C   0  0  0  0  0  0  0  0  0  0  0  0
    3.6559    1.8016   -0.0944 C   0  0  0  0  0  0  0  0  0  0  0  0
   -2.7930    3.1882    0.1574 C   0  0  0  0  0  0  0  0  0  0  0  0
    5.1007   -1.5779    0.5428 C   0  0  0  0  0  0  0  0  0  0  0  0
    4.3126   -0.4563    0.7005 C   0  0  0  0  0  0  0  0  0  0  0  0
   -7.0195   -2.8284   -0.0418 C   0  0  0  0  0  0  0  0  0  0  0  0
    6.0163   -1.6817   -0.4793 C   0  0  0  0  0  0  0  0  0  0  0  0
    5.4089    0.4773   -1.2628 C   0  0  0  0  0  0  0  0  0  0  0  0
    6.1945   -0.6697   -1.4000 C   0  0  0  0  0  0  0  0  0  0  0  0
   -3.3534    2.1446   -0.4724 C   0  0  0  0  0  0  0  0  0  0  0  0
    6.0926   -3.4944    0.6995 C   0  0  0  0  0  0  0  0  0  0  0  0
   -8.4740   -2.3873   -0.1472 C   0  0  0  0  0  0  0  0  0  0  0  0
   -6.7818   -4.1311   -0.7944 C   0  0  0  0  0  0  0  0  0  0  0  0
   -4.2205    1.1943    0.1885 C   0  0  0  0  0  0  0  0  0  0  0  0
   -5.6611   -0.7890    0.2854 C   0  0  0  0  0  0  0  0  0  0  0  0
   -4.7752    0.1549   -0.4505 C   0  0  0  0  0  0  0  0  0  0  0  0
   -0.2281    2.1800    0.6183 H   0  0  0  0  0  0  0  0  0  0  0  0
    0.3863    2.6511   -0.9673 H   0  0  0  0  0  0  0  0  0  0  0  0
    0.0589    5.0739   -0.3640 H   0  0  0  0  0  0  0  0  0  0  0  0
   -0.6170    4.5873    1.1867 H   0  0  0  0  0  0  0  0  0  0  0  0
    1.6102    3.4360    1.7360 H   0  0  0  0  0  0  0  0  0  0  0  0
    2.2107    3.9837    0.1731 H   0  0  0  0  0  0  0  0  0  0  0  0
   -1.7609    3.9314   -1.5801 H   0  0  0  0  0  0  0  0  0  0  0  0
   -2.3641    5.1608   -0.4780 H   0  0  0  0  0  0  0  0  0  0  0  0
    2.0757    1.0356    1.0977 H   0  0  0  0  0  0  0  0  0  0  0  0
    4.0352    2.6785   -0.6142 H   0  0  0  0  0  0  0  0  0  0  0  0
   -2.9947    3.3579    1.2128 H   0  0  0  0  0  0  0  0  0  0  0  0
   -6.7891   -2.9980    1.0171 H   0  0  0  0  0  0  0  0  0  0  0  0
    3.6193   -0.4147    1.5327 H   0  0  0  0  0  0  0  0  0  0  0  0
    5.5334    1.2861   -1.9795 H   0  0  0  0  0  0  0  0  0  0  0  0
    6.9168   -0.7556   -2.2038 H   0  0  0  0  0  0  0  0  0  0  0  0
   -3.1508    1.9848   -1.5284 H   0  0  0  0  0  0  0  0  0  0  0  0
    5.6353   -4.4400    0.3861 H   0  0  0  0  0  0  0  0  0  0  0  0
    6.8821   -3.7100    1.4286 H   0  0  0  0  0  0  0  0  0  0  0  0
   -5.9127   -1.7934   -1.5266 H   0  0  0  0  0  0  0  0  0  0  0  0
   -8.6479   -1.4686    0.4236 H   0  0  0  0  0  0  0  0  0  0  0  0
   -9.1463   -3.1585    0.2428 H   0  0  0  0  0  0  0  0  0  0  0  0
   -8.7527   -2.1853   -1.1875 H   0  0  0  0  0  0  0  0  0  0  0  0
   -7.4189   -4.9313   -0.4035 H   0  0  0  0  0  0  0  0  0  0  0  0
   -5.7384   -4.4507   -0.6972 H   0  0  0  0  0  0  0  0  0  0  0  0
   -6.9935   -4.0182   -1.8636 H   0  0  0  0  0  0  0  0  0  0  0  0
   -4.4107    1.3585    1.2461 H   0  0  0  0  0  0  0  0  0  0  0  0
   -4.5944   -0.0218   -1.5063 H   0  0  0  0  0  0  0  0  0  0  0  0
  1 13  1  0  0  0  0
  1 20  1  0  0  0  0
  2 16  1  0  0  0  0
  2 20  1  0  0  0  0
  3 24  2  0  0  0  0
  4 15  1  0  0  0  0
  4 24  1  0  0  0  0
  4 44  1  0  0  0  0
  5  6  1  0  0  0  0
  5  7  1  0  0  0  0
  5 26  1  0  0  0  0
  5 27  1  0  0  0  0
  6  8  1  0  0  0  0
  6 28  1  0  0  0  0
  6 29  1  0  0  0  0
  7  9  1  0  0  0  0
  7 30  1  0  0  0  0
  7 31  1  0  0  0  0
  8 12  1  0  0  0  0
  8 32  1  0  0  0  0
  8 33  1  0  0  0  0
  9 11  2  0  0  0  0
  9 34  1  0  0  0  0
 10 11  1  0  0  0  0
 10 14  2  0  0  0  0
 10 17  1  0  0  0  0
 11 35  1  0  0  0  0
 12 19  2  0  0  0  0
 12 36  1  0  0  0  0
 13 14  1  0  0  0  0
 13 16  2  0  0  0  0
 14 38  1  0  0  0  0
 15 21  1  0  0  0  0
 15 22  1  0  0  0  0
 15 37  1  0  0  0  0
 16 18  1  0  0  0  0
 17 18  2  0  0  0  0
 17 39  1  0  0  0  0
 18 40  1  0  0  0  0
 19 23  1  0  0  0  0
 19 41  1  0  0  0  0
 20 42  1  0  0  0  0
 20 43  1  0  0  0  0
 21 45  1  0  0  0  0
 21 46  1  0  0  0  0
 21 50  1  0  0  0  0
 22 47  1  0  0  0  0
 22 48  1  0  0  0  0
 22 49  1  0  0  0  0
 23 25  2  0  0  0  0
 23 51  1  0  0  0  0
 24 25  1  0  0  0  0
 25 52  1  0  0  0  0
M  END
> <PUBCHEM_COMPOUND_CID>
101422868

> <PUBCHEM_CONFORMER_RMSD>
1

> <PUBCHEM_CONFORMER_DIVERSEORDER>
1
44
152
42
120
107
160
126
103
24
106
11
84
64
157
21
68
124
86
63
80
161
139
28
121
5
4
29
143
33
135
90
159
138
10
23
18
133
70
15
77
54
12
125
83
97
154
85
140
6
131
48
55
2
115
122
137
43
108
93
153
58
113
158
37
98
148
109
112
61
91
8
111
69
134
26
95
149
74
66
141
39
32
59
25
116
92
142
88
13
105
156
71
94
67
164
82
7
76
35
117
162
79
87
163
166
81
145
45
130
36
128
27
31
118
9
62
30
146
78
65
99
102
47
17
14
129
50
110
155
41
52
53
49
20
132
57
16
127
72
89
56
151
75
3
123
51
40
73
38
60
101
136
144
22
96
114
19
34
46
104
119
165
147
150
100

> <PUBCHEM_MMFF94_PARTIAL_CHARGES>
31
1 -0.36
10 0.03
11 -0.18
12 -0.29
13 0.08
14 -0.15
15 0.3
16 0.08
17 -0.15
18 -0.15
19 -0.15
2 -0.36
20 0.56
23 -0.15
24 0.62
25 -0.14
3 -0.57
34 0.15
35 0.15
36 0.15
38 0.15
39 0.15
4 -0.73
40 0.15
41 0.15
44 0.37
51 0.15
52 0.15
7 0.14
8 0.14
9 -0.29

> <PUBCHEM_EFFECTIVE_ROTOR_COUNT>
10.6

> <PUBCHEM_PHARMACOPHORE_FEATURES>
9
1 1 acceptor
1 2 acceptor
1 3 acceptor
1 4 donor
3 15 21 22 hydrophobe
3 5 7 9 hydrophobe
3 6 8 12 hydrophobe
5 1 2 13 16 20 rings
6 10 13 14 16 17 18 rings

> <PUBCHEM_HEAVY_ATOM_COUNT>
25

> <PUBCHEM_ATOM_DEF_STEREO_COUNT>
0

> <PUBCHEM_ATOM_UDEF_STEREO_COUNT>
0

> <PUBCHEM_BOND_DEF_STEREO_COUNT>
3

> <PUBCHEM_BOND_UDEF_STEREO_COUNT>
0

> <PUBCHEM_ISOTOPIC_ATOM_COUNT>
0

> <PUBCHEM_COMPONENT_COUNT>
1

> <PUBCHEM_CACTVS_TAUTO_COUNT>
5

> <PUBCHEM_CONFORMER_ID>
060B971400000001

> <PUBCHEM_MMFF94_ENERGY>
38.8051

> <PUBCHEM_FEATURE_SELFOVERLAP>
45.826

> <PUBCHEM_SHAPE_FINGERPRINT>
10319688 140 18192434292822201365
11409948 41 17838319029294415935
117089 54 18409173242161880163
11761917 116 18411425012221842678
12645989 146 18411705404403090211
12661589 4 18409724063364742442
12717326 120 18055359034035697486
13165053 68 18268156371502691454
13383661 66 17845670144329515014
1361 4 18410295770730209940
1361 87 17386578010853159617
13911852 28 18338515352560275221
14251764 30 18410854378139690885
15530120 55 17603883173468135796
15803439 3 14706931743599462009
17138139 8 18042404639048716952
20775438 99 17968666029202839104
20843269 155 18410009901643616512
21307412 95 18263071155461560421
21585483 132 18042113259730059866
229767 8 18411420613616382603
23569914 2 13540248636476227563
24983565 74 18055625360130121959
270888 7 8935006958150889429
2835820 82 18194962079630342719
393628 194 9295288327044062067
439807 62 18262523593536845605
484985 159 18269277859776994305
6712543 237 15913054244377689157
7970288 3 18338795740704193901
8863177 126 18341891866548134672
9980921 52 17771324643141616679

> <PUBCHEM_SHAPE_MULTIPOLES>
491.9
25.49
6.51
1.05
21.83
1.61
0.01
-37.29
2.41
3.94
-0.11
-0.86
-0.33
-1.35

> <PUBCHEM_SHAPE_SELFOVERLAP>
1005.214

> <PUBCHEM_SHAPE_VOLUME>
284.1

> <PUBCHEM_COORDINATE_TYPE>
2
5
10

$$$$
