14739
  -OEChem-11202002113D

 50 51  0     0  0  0  0  0  0999 V2000
    6.3801   -1.6928   -0.5424 O   0  0  0  0  0  0  0  0  0  0  0  0
   -2.6856    0.0121    0.9409 N   0  0  0  0  0  0  0  0  0  0  0  0
    0.1146    0.1024    0.3841 N   0  0  0  0  0  0  0  0  0  0  0  0
   -6.6337   -0.5001   -0.8028 N   0  0  0  0  0  0  0  0  0  0  0  0
    5.6706    0.5401   -0.2794 N   0  0  0  0  0  0  0  0  0  0  0  0
   -2.1893    0.6815   -0.2675 C   0  0  0  0  0  0  0  0  0  0  0  0
   -1.8270   -1.1338    1.2653 C   0  0  0  0  0  0  0  0  0  0  0  0
   -0.7593    1.1896   -0.0673 C   0  0  0  0  0  0  0  0  0  0  0  0
   -0.3856   -0.6857    1.5176 C   0  0  0  0  0  0  0  0  0  0  0  0
   -4.0702   -0.4208    0.7558 C   0  0  0  0  0  0  0  0  0  0  0  0
   -4.9728    0.7891    0.5072 C   0  0  0  0  0  0  0  0  0  0  0  0
    1.4999    0.2117    0.2196 C   0  0  0  0  0  0  0  0  0  0  0  0
   -6.4433    0.4087    0.3211 C   0  0  0  0  0  0  0  0  0  0  0  0
    2.3006   -0.9326    0.0313 C   0  0  0  0  0  0  0  0  0  0  0  0
    2.1360    1.4690    0.2361 C   0  0  0  0  0  0  0  0  0  0  0  0
    3.6815   -0.8240   -0.1337 C   0  0  0  0  0  0  0  0  0  0  0  0
    3.5167    1.5778    0.0709 C   0  0  0  0  0  0  0  0  0  0  0  0
    4.2896    0.4313   -0.1139 C   0  0  0  0  0  0  0  0  0  0  0  0
   -6.1945    0.1251   -2.0517 C   0  0  0  0  0  0  0  0  0  0  0  0
   -8.0362   -0.9073   -0.9051 C   0  0  0  0  0  0  0  0  0  0  0  0
    6.6023   -0.4882   -0.4751 C   0  0  0  0  0  0  0  0  0  0  0  0
    8.0056    0.0470   -0.6109 C   0  0  0  0  0  0  0  0  0  0  0  0
   -2.7646    1.5732   -0.5248 H   0  0  0  0  0  0  0  0  0  0  0  0
   -2.2228    0.0036   -1.1311 H   0  0  0  0  0  0  0  0  0  0  0  0
   -1.8441   -1.8741    0.4539 H   0  0  0  0  0  0  0  0  0  0  0  0
   -2.1930   -1.6330    2.1707 H   0  0  0  0  0  0  0  0  0  0  0  0
   -0.7551    2.0016    0.6713 H   0  0  0  0  0  0  0  0  0  0  0  0
   -0.4056    1.5979   -1.0224 H   0  0  0  0  0  0  0  0  0  0  0  0
    0.2244   -1.5801    1.6894 H   0  0  0  0  0  0  0  0  0  0  0  0
   -0.3329   -0.0779    2.4302 H   0  0  0  0  0  0  0  0  0  0  0  0
   -4.1409   -1.1389   -0.0703 H   0  0  0  0  0  0  0  0  0  0  0  0
   -4.4198   -0.9326    1.6613 H   0  0  0  0  0  0  0  0  0  0  0  0
   -4.6750    1.3980   -0.3477 H   0  0  0  0  0  0  0  0  0  0  0  0
   -4.9095    1.4572    1.3773 H   0  0  0  0  0  0  0  0  0  0  0  0
   -6.7889   -0.0726    1.2451 H   0  0  0  0  0  0  0  0  0  0  0  0
   -7.0391    1.3231    0.1996 H   0  0  0  0  0  0  0  0  0  0  0  0
    1.8458   -1.9204   -0.0007 H   0  0  0  0  0  0  0  0  0  0  0  0
    1.5684    2.3833    0.3903 H   0  0  0  0  0  0  0  0  0  0  0  0
    4.2123   -1.7550   -0.2747 H   0  0  0  0  0  0  0  0  0  0  0  0
    3.9779    2.5621    0.0911 H   0  0  0  0  0  0  0  0  0  0  0  0
   -5.1070    0.2397   -2.0930 H   0  0  0  0  0  0  0  0  0  0  0  0
   -6.6645    1.1012   -2.2181 H   0  0  0  0  0  0  0  0  0  0  0  0
   -6.4455   -0.5155   -2.9059 H   0  0  0  0  0  0  0  0  0  0  0  0
   -8.3603   -1.4065    0.0149 H   0  0  0  0  0  0  0  0  0  0  0  0
   -8.1691   -1.6318   -1.7163 H   0  0  0  0  0  0  0  0  0  0  0  0
   -8.7017   -0.0560   -1.0893 H   0  0  0  0  0  0  0  0  0  0  0  0
    6.0377    1.4892   -0.2528 H   0  0  0  0  0  0  0  0  0  0  0  0
    8.0689    0.6996   -1.4862 H   0  0  0  0  0  0  0  0  0  0  0  0
    8.7083   -0.7818   -0.7335 H   0  0  0  0  0  0  0  0  0  0  0  0
    8.2763    0.6110    0.2863 H   0  0  0  0  0  0  0  0  0  0  0  0
  1 21  2  0  0  0  0
  2  6  1  0  0  0  0
  2  7  1  0  0  0  0
  2 10  1  0  0  0  0
  3  8  1  0  0  0  0
  3  9  1  0  0  0  0
  3 12  1  0  0  0  0
  4 13  1  0  0  0  0
  4 19  1  0  0  0  0
  4 20  1  0  0  0  0
  5 18  1  0  0  0  0
  5 21  1  0  0  0  0
  5 47  1  0  0  0  0
  6  8  1  0  0  0  0
  6 23  1  0  0  0  0
  6 24  1  0  0  0  0
  7  9  1  0  0  0  0
  7 25  1  0  0  0  0
  7 26  1  0  0  0  0
  8 27  1  0  0  0  0
  8 28  1  0  0  0  0
  9 29  1  0  0  0  0
  9 30  1  0  0  0  0
 10 11  1  0  0  0  0
 10 31  1  0  0  0  0
 10 32  1  0  0  0  0
 11 13  1  0  0  0  0
 11 33  1  0  0  0  0
 11 34  1  0  0  0  0
 12 14  2  0  0  0  0
 12 15  1  0  0  0  0
 13 35  1  0  0  0  0
 13 36  1  0  0  0  0
 14 16  1  0  0  0  0
 14 37  1  0  0  0  0
 15 17  2  0  0  0  0
 15 38  1  0  0  0  0
 16 18  2  0  0  0  0
 16 39  1  0  0  0  0
 17 18  1  0  0  0  0
 17 40  1  0  0  0  0
 19 41  1  0  0  0  0
 19 42  1  0  0  0  0
 19 43  1  0  0  0  0
 20 44  1  0  0  0  0
 20 45  1  0  0  0  0
 20 46  1  0  0  0  0
 21 22  1  0  0  0  0
 22 48  1  0  0  0  0
 22 49  1  0  0  0  0
 22 50  1  0  0  0  0
M  END
> <PUBCHEM_COMPOUND_CID>
14739

> <PUBCHEM_CONFORMER_RMSD>
0.8

> <PUBCHEM_CONFORMER_DIVERSEORDER>
1
18
25
54
60
68
45
13
21
81
40
50
76
30
48
69
39
8
82
62
29
33
31
83
34
16
12
71
35
41
58
51
59
80
23
77
14
42
7
4
36
37
57
5
26
64
84
11
19
53
72
20
17
61
9
78
73
55
43
6
52
24
79
70
66
67
10
85
32
47
65
86
2
22
38
63
75
27
56
3
74
44
15
49
46
28

> <PUBCHEM_MMFF94_PARTIAL_CHARGES>
26
1 -0.57
10 0.27
12 0.1
13 0.27
14 -0.15
15 -0.15
16 -0.15
17 -0.15
18 0.12
19 0.27
2 -0.81
20 0.27
21 0.57
22 0.06
3 -0.84
37 0.15
38 0.15
39 0.15
4 -0.81
40 0.15
47 0.37
5 -0.55
6 0.27
7 0.27
8 0.37
9 0.37

> <PUBCHEM_EFFECTIVE_ROTOR_COUNT>
8.2

> <PUBCHEM_PHARMACOPHORE_FEATURES>
7
1 1 acceptor
1 2 cation
1 3 cation
1 4 cation
1 5 donor
6 12 14 15 16 17 18 rings
6 2 3 6 7 8 9 rings

> <PUBCHEM_HEAVY_ATOM_COUNT>
22

> <PUBCHEM_ATOM_DEF_STEREO_COUNT>
0

> <PUBCHEM_ATOM_UDEF_STEREO_COUNT>
0

> <PUBCHEM_BOND_DEF_STEREO_COUNT>
0

> <PUBCHEM_BOND_UDEF_STEREO_COUNT>
0

> <PUBCHEM_ISOTOPIC_ATOM_COUNT>
0

> <PUBCHEM_COMPONENT_COUNT>
1

> <PUBCHEM_CACTVS_TAUTO_COUNT>
2

> <PUBCHEM_CONFORMER_ID>
0000399300000001

> <PUBCHEM_MMFF94_ENERGY>
67.1585

> <PUBCHEM_FEATURE_SELFOVERLAP>
35.523

> <PUBCHEM_SHAPE_FINGERPRINT>
10066227 49 18130229250803070710
10299344 5 17846499231894165207
106641 1 14908176465449179434
10670039 82 17968091989485571525
10835480 77 18188497998951387200
11315181 36 18114473326274967928
12011746 2 18040436594111167568
12091667 2 18201443567267761153
12166972 35 17418373609925700249
12236239 1 17131836460464051456
12838862 33 18187917405313862634
13533116 47 17676479502512679298
13668630 136 17418380181309571517
13685833 64 13110965322819501858
13964095 4 17095242522857729011
14123256 10 18334295366290982879
14251752 14 16950277395092660137
14251757 52 15068628210127863334
14251764 18 18408324372024830472
14251764 46 18410294709203270802
14729087 3 15430034361962418503
14849402 71 7997670000968456070
15048467 5 12612751315939332493
15183329 4 18408319978289247363
155225 1 14634859835637776671
15690457 1 17489868228899545238
15716309 27 15697997457633271037
16120349 18 18271805774806491512
17834072 8 18113056043286562121
18006028 8 18342460335339099128
200 152 18059862748887712344
21150785 3 18059857272324322711
21267235 1 18335995215541587952
21521721 280 9151164347349089958
21792961 116 17895474735712769248
221357 26 18335420153902042204
2215653 11 18334579036101561362
22224240 67 17274821351230209782
23035841 295 16200432490406788039
23402539 116 18334296486976779771
23536379 177 17917994967079797513
23559900 14 18261677064199086216
23576562 1 16661495176575159335
29717793 49 18131357410036140788
335352 9 18408046230153595092
3545911 37 18040438793134332384
4325135 7 17846498132503824407
445580 37 16298385730345913749
5283156 175 17418095416809937287
59682541 35 13110956523117639298
59755656 215 17894629232049819306
59755656 520 17313100882489327651
7495541 125 16271920558759390137

> <PUBCHEM_SHAPE_MULTIPOLES>
426.96
22.33
1.3
1.18
4.11
0.04
0.23
-2.71
10.27
-0.79
-0.1
1.78
-0.15
0.47

> <PUBCHEM_SHAPE_SELFOVERLAP>
863.884

> <PUBCHEM_SHAPE_VOLUME>
250.5

> <PUBCHEM_COORDINATE_TYPE>
2
5
10

$$$$
