21580213
  -OEChem-11202002143D

 54 56  0     0  0  0  0  0  0999 V2000
    6.0214    1.8484   -0.3786 O   0  0  0  0  0  0  0  0  0  0  0  0
   -7.5190   -1.7864   -1.1345 O   0  0  0  0  0  0  0  0  0  0  0  0
   -8.9022   -0.9917    0.6719 O   0  0  0  0  0  0  0  0  0  0  0  0
    7.1090   -0.0394    0.4280 N   0  0  0  0  0  0  0  0  0  0  0  0
    9.4146   -1.7462    0.0638 C   0  0  0  0  0  0  0  0  0  0  0  0
    8.0048   -2.3234    0.1826 C   0  0  0  0  0  0  0  0  0  0  0  0
    9.3772   -0.3237   -0.4925 C   0  0  0  0  0  0  0  0  0  0  0  0
    7.0918   -1.3982    0.9843 C   0  0  0  0  0  0  0  0  0  0  0  0
    8.4397    0.5632    0.3223 C   0  0  0  0  0  0  0  0  0  0  0  0
    5.9836    0.6928    0.0514 C   0  0  0  0  0  0  0  0  0  0  0  0
    4.6508    0.0007    0.1875 C   0  0  0  0  0  0  0  0  0  0  0  0
    3.5122    0.9144   -0.2579 C   0  0  0  0  0  0  0  0  0  0  0  0
    2.1392    0.2488   -0.1164 C   0  0  0  0  0  0  0  0  0  0  0  0
    0.9799    1.1525   -0.5492 C   0  0  0  0  0  0  0  0  0  0  0  0
   -0.3945    0.4945   -0.3856 C   0  0  0  0  0  0  0  0  0  0  0  0
   -1.5427    1.3801   -0.8824 C   0  0  0  0  0  0  0  0  0  0  0  0
   -2.8924    0.7441   -0.7009 C   0  0  0  0  0  0  0  0  0  0  0  0
   -3.8920    1.3180   -0.0133 C   0  0  0  0  0  0  0  0  0  0  0  0
   -5.2244    0.7283    0.1974 C   0  0  0  0  0  0  0  0  0  0  0  0
   -5.6600   -0.2791   -0.6530 C   0  0  0  0  0  0  0  0  0  0  0  0
   -6.9154   -0.8005   -0.4163 C   0  0  0  0  0  0  0  0  0  0  0  0
   -6.0159    1.1988    1.2487 C   0  0  0  0  0  0  0  0  0  0  0  0
   -7.7053   -0.3467    0.6151 C   0  0  0  0  0  0  0  0  0  0  0  0
   -7.2834    0.6535    1.4667 C   0  0  0  0  0  0  0  0  0  0  0  0
   -8.7771   -1.9027   -0.4391 C   0  0  0  0  0  0  0  0  0  0  0  0
    9.8923   -1.7407    1.0511 H   0  0  0  0  0  0  0  0  0  0  0  0
   10.0243   -2.3839   -0.5859 H   0  0  0  0  0  0  0  0  0  0  0  0
    8.0456   -3.3098    0.6575 H   0  0  0  0  0  0  0  0  0  0  0  0
    7.5881   -2.4632   -0.8226 H   0  0  0  0  0  0  0  0  0  0  0  0
    9.0348   -0.3547   -1.5344 H   0  0  0  0  0  0  0  0  0  0  0  0
   10.3863    0.1026   -0.4947 H   0  0  0  0  0  0  0  0  0  0  0  0
    6.0860   -1.8204    1.0120 H   0  0  0  0  0  0  0  0  0  0  0  0
    7.4399   -1.3257    2.0216 H   0  0  0  0  0  0  0  0  0  0  0  0
    8.8223    0.6912    1.3418 H   0  0  0  0  0  0  0  0  0  0  0  0
    8.3833    1.5568   -0.1332 H   0  0  0  0  0  0  0  0  0  0  0  0
    4.5014   -0.2792    1.2362 H   0  0  0  0  0  0  0  0  0  0  0  0
    4.6545   -0.9040   -0.4304 H   0  0  0  0  0  0  0  0  0  0  0  0
    3.5230    1.8378    0.3351 H   0  0  0  0  0  0  0  0  0  0  0  0
    3.6602    1.2102   -1.3044 H   0  0  0  0  0  0  0  0  0  0  0  0
    2.1206   -0.6709   -0.7142 H   0  0  0  0  0  0  0  0  0  0  0  0
    1.9899   -0.0491    0.9289 H   0  0  0  0  0  0  0  0  0  0  0  0
    1.1214    1.4360   -1.5994 H   0  0  0  0  0  0  0  0  0  0  0  0
    1.0061    2.0799    0.0362 H   0  0  0  0  0  0  0  0  0  0  0  0
   -0.4058   -0.4564   -0.9336 H   0  0  0  0  0  0  0  0  0  0  0  0
   -0.5514    0.2504    0.6728 H   0  0  0  0  0  0  0  0  0  0  0  0
   -1.4999    2.3484   -0.3686 H   0  0  0  0  0  0  0  0  0  0  0  0
   -1.4030    1.5850   -1.9508 H   0  0  0  0  0  0  0  0  0  0  0  0
   -3.0053   -0.2321   -1.1626 H   0  0  0  0  0  0  0  0  0  0  0  0
   -3.7264    2.2887    0.4490 H   0  0  0  0  0  0  0  0  0  0  0  0
   -5.0845   -0.6556   -1.4902 H   0  0  0  0  0  0  0  0  0  0  0  0
   -5.6625    1.9874    1.9086 H   0  0  0  0  0  0  0  0  0  0  0  0
   -7.9087    1.0080    2.2781 H   0  0  0  0  0  0  0  0  0  0  0  0
   -8.8779   -2.9281   -0.0652 H   0  0  0  0  0  0  0  0  0  0  0  0
   -9.5894   -1.7052   -1.1480 H   0  0  0  0  0  0  0  0  0  0  0  0
  1 10  2  0  0  0  0
  2 21  1  0  0  0  0
  2 25  1  0  0  0  0
  3 23  1  0  0  0  0
  3 25  1  0  0  0  0
  4  8  1  0  0  0  0
  4  9  1  0  0  0  0
  4 10  1  0  0  0  0
  5  6  1  0  0  0  0
  5  7  1  0  0  0  0
  5 26  1  0  0  0  0
  5 27  1  0  0  0  0
  6  8  1  0  0  0  0
  6 28  1  0  0  0  0
  6 29  1  0  0  0  0
  7  9  1  0  0  0  0
  7 30  1  0  0  0  0
  7 31  1  0  0  0  0
  8 32  1  0  0  0  0
  8 33  1  0  0  0  0
  9 34  1  0  0  0  0
  9 35  1  0  0  0  0
 10 11  1  0  0  0  0
 11 12  1  0  0  0  0
 11 36  1  0  0  0  0
 11 37  1  0  0  0  0
 12 13  1  0  0  0  0
 12 38  1  0  0  0  0
 12 39  1  0  0  0  0
 13 14  1  0  0  0  0
 13 40  1  0  0  0  0
 13 41  1  0  0  0  0
 14 15  1  0  0  0  0
 14 42  1  0  0  0  0
 14 43  1  0  0  0  0
 15 16  1  0  0  0  0
 15 44  1  0  0  0  0
 15 45  1  0  0  0  0
 16 17  1  0  0  0  0
 16 46  1  0  0  0  0
 16 47  1  0  0  0  0
 17 18  2  0  0  0  0
 17 48  1  0  0  0  0
 18 19  1  0  0  0  0
 18 49  1  0  0  0  0
 19 20  2  0  0  0  0
 19 22  1  0  0  0  0
 20 21  1  0  0  0  0
 20 50  1  0  0  0  0
 21 23  2  0  0  0  0
 22 24  2  0  0  0  0
 22 51  1  0  0  0  0
 23 24  1  0  0  0  0
 24 52  1  0  0  0  0
 25 53  1  0  0  0  0
 25 54  1  0  0  0  0
M  END
> <PUBCHEM_COMPOUND_CID>
21580213

> <PUBCHEM_CONFORMER_RMSD>
1

> <PUBCHEM_CONFORMER_DIVERSEORDER>
1
138
323
373
154
285
372
158
188
304
310
316
243
77
141
45
203
259
417
39
278
197
394
6
206
401
196
191
31
81
253
332
277
67
166
262
104
93
35
139
94
56
157
175
416
377
361
292
426
92
178
412
210
13
391
340
7
22
286
32
99
370
331
38
186
17
245
142
97
110
40
84
289
415
27
122
410
105
41
321
329
334
124
405
258
260
47
152
274
238
208
395
337
236
287
134
207
179
420
324
346
108
279
159
284
345
411
24
25
255
390
326
406
120
190
87
218
335
49
85
359
283
130
342
235
133
367
407
375
336
379
204
350
306
356
33
42
43
295
79
341
71
30
418
170
182
297
74
100
66
80
241
217
28
352
368
272
54
271
150
167
106
381
198
387
385
254
234
222
113
355
63
225
261
193
174
18
126
14
301
8
256
362
212
205
363
351
62
333
402
291
69
145
61
219
127
199
143
15
96
270
51
184
322
16
397
252
68
305
282
131
364
58
50
358
396
107
112
9
194
366
239
221
36
98
169
303
257
48
299
103
163
78
232
37
162
421
76
227
288
269
21
230
376
311
314
384
400
296
155
393
265
300
189
153
216
60
185
280
26
209
181
10
88
89
247
419
309
171
330
250
290
312
360
399
82
320
347
319
117
389
348
53
101
302
114
425
263
187
148
118
160
242
248
275
102
151
392
140
249
423
149
44
195
307
267
382
119
343
172
4
371
19
147
266
383
70
202
422
90
338
327
281
146
339
354
180
57
12
380
386
46
298
408
165
2
11
414
109
135
215
318
328
23
211
374
276
192
251
424
308
293
313
168
398
237
64
325
220
34
29
123
413
224
213
137
369
55
231
173
268
125
357
83
128
5
164
226
183
65
264
177
349
86
91
378
161
121
404
116
176
353
229
73
344
200
156
20
75
115
228
136
409
3
273
214
388
132
144
240
403
59
294
111
129
72
95
244
315
365
246
233
223
317
201
52

> <PUBCHEM_MMFF94_PARTIAL_CHARGES>
23
1 -0.57
10 0.57
11 0.06
16 0.14
17 -0.29
18 -0.18
19 0.03
2 -0.36
20 -0.15
21 0.08
22 -0.15
23 0.08
24 -0.15
25 0.56
3 -0.36
4 -0.66
48 0.15
49 0.15
50 0.15
51 0.15
52 0.15
8 0.3
9 0.3

> <PUBCHEM_EFFECTIVE_ROTOR_COUNT>
10.8

> <PUBCHEM_PHARMACOPHORE_FEATURES>
6
1 1 acceptor
1 2 acceptor
1 3 acceptor
5 2 3 21 23 25 rings
6 19 20 21 22 23 24 rings
6 4 5 6 7 8 9 rings

> <PUBCHEM_HEAVY_ATOM_COUNT>
25

> <PUBCHEM_ATOM_DEF_STEREO_COUNT>
0

> <PUBCHEM_ATOM_UDEF_STEREO_COUNT>
0

> <PUBCHEM_BOND_DEF_STEREO_COUNT>
1

> <PUBCHEM_BOND_UDEF_STEREO_COUNT>
0

> <PUBCHEM_ISOTOPIC_ATOM_COUNT>
0

> <PUBCHEM_COMPONENT_COUNT>
1

> <PUBCHEM_CACTVS_TAUTO_COUNT>
1

> <PUBCHEM_CONFORMER_ID>
014949B500000001

> <PUBCHEM_MMFF94_ENERGY>
40.0216

> <PUBCHEM_FEATURE_SELFOVERLAP>
30.603

> <PUBCHEM_SHAPE_FINGERPRINT>
10 15 15913332386264780461
10054150 59 12113484088400573617
10299344 5 18413388739509054028
10533779 47 15913053067815541518
10625338 86 12967133783137644667
11181472 205 7853310755743974172
11315181 36 12179846087719782677
11386260 185 15719401659260476868
11463208 3 18408887305105279394
11638347 137 18343866602611258694
11828042 75 17678467579178781963
12089408 11 18412547621535344260
12539745 222 18272652312491476105
12592606 108 18409166615137832656
13553643 46 12535343485484095458
14150022 121 17489595515530174681
14251764 18 18411419522478119285
14251764 46 17988924470719545853
14344974 52 9871458812957562017
150020 25 15140683600367896884
15198563 99 16226035666146608453
15510794 2 18408321056209890389
155225 1 10592050155084413531
15690457 1 18334292072204054044
15979999 66 13623535662252450830
1754908 1 17632854239512678490
1754911 235 10881402024173966210
1818759 1 18186804677222702467
20105231 36 18411421666875381230
21095086 128 18410855468723371144
21095123 145 17060055982132504173
21150785 3 12612757908788108320
21267235 1 18261111851415240628
21315759 40 18411422816718561509
21315763 28 18410573985447532388
21360443 89 15123215690578700397
21362267 20 18343298197322839871
21792934 111 8214141834245981838
21895431 317 18114737124221875890
232437 2 18413109459772289166
23576562 1 12396886430866343875
246663 6 18040436581648284780
249057 3 15574721313222375740
33532 11 18334854988082794554
3633792 109 9151176472205712596
3711267 37 10087647043557766675
397638 26 15267335241154476854
4093350 32 15339123395241559254
45377200 153 18041001794759900091
5758199 1 11743841361099746629
5937810 71 11963658994727892551
636775 72 10159705698874427943
636775 8 12180140800329499777
67123 10 18410573998764567644
9953998 17 16200154322860831063
9962374 69 18187924023484107812

> <PUBCHEM_SHAPE_MULTIPOLES>
491.9
40.67
1.86
1
21.17
0.75
-0.15
20.88
-5.03
0.6
0.15
-1.42
-0.03
-1.8

> <PUBCHEM_SHAPE_SELFOVERLAP>
1015.499

> <PUBCHEM_SHAPE_VOLUME>
280.4

> <PUBCHEM_COORDINATE_TYPE>
2
5
10

$$$$
