10086296
  -OEChem-09052004153D

 52 54  0     1  0  0  0  0  0999 V2000
   -3.0375    1.5321    1.6116 O   0  0  0  0  0  0  0  0  0  0  0  0
   -3.8982   -0.5714    1.7867 O   0  0  0  0  0  0  0  0  0  0  0  0
   -0.5420   -0.6578   -0.2539 C   0  0  2  0  0  0  0  0  0  0  0  0
   -1.5414    0.4972   -0.6485 C   0  0  1  0  0  0  0  0  0  0  0  0
    0.8618   -0.3254   -0.9085 C   0  0  1  0  0  0  0  0  0  0  0  0
   -3.0495    0.2173   -0.3455 C   0  0  2  0  0  0  0  0  0  0  0  0
   -1.0733   -1.9960   -0.8295 C   0  0  0  0  0  0  0  0  0  0  0  0
   -1.0284    1.8603   -0.1357 C   0  0  0  0  0  0  0  0  0  0  0  0
    1.3479    1.0632   -0.5184 C   0  0  0  0  0  0  0  0  0  0  0  0
   -3.4570   -1.1744   -0.8753 C   0  0  0  0  0  0  0  0  0  0  0  0
   -2.5176   -2.2931   -0.4421 C   0  0  0  0  0  0  0  0  0  0  0  0
    1.9244   -1.4274   -0.6799 C   0  0  0  0  0  0  0  0  0  0  0  0
    0.3565    2.1841   -0.6948 C   0  0  0  0  0  0  0  0  0  0  0  0
   -0.3913   -0.8018    1.2848 C   0  0  0  0  0  0  0  0  0  0  0  0
    3.3431   -0.9237   -0.9403 C   0  0  0  0  0  0  0  0  0  0  0  0
    3.7016    0.2759   -0.0329 C   0  0  2  0  0  0  0  0  0  0  0  0
   -3.9579    1.2609   -1.0308 C   0  0  0  0  0  0  0  0  0  0  0  0
    2.6006    1.3121   -0.0951 C   0  0  0  0  0  0  0  0  0  0  0  0
   -3.3839    0.3162    1.1226 C   0  0  0  0  0  0  0  0  0  0  0  0
    5.0162    0.8946   -0.5390 C   0  0  0  0  0  0  0  0  0  0  0  0
    3.9102   -0.1669    1.3938 C   0  0  0  0  0  0  0  0  0  0  0  0
    4.8157   -1.0759    1.7706 C   0  0  0  0  0  0  0  0  0  0  0  0
   -1.4930    0.5607   -1.7486 H   0  0  0  0  0  0  0  0  0  0  0  0
    0.7102   -0.2804   -1.9986 H   0  0  0  0  0  0  0  0  0  0  0  0
   -0.4483   -2.8340   -0.4980 H   0  0  0  0  0  0  0  0  0  0  0  0
   -1.0050   -1.9752   -1.9254 H   0  0  0  0  0  0  0  0  0  0  0  0
   -0.9331    1.8790    0.9532 H   0  0  0  0  0  0  0  0  0  0  0  0
   -1.6996    2.6751   -0.4233 H   0  0  0  0  0  0  0  0  0  0  0  0
   -3.4721   -1.1510   -1.9737 H   0  0  0  0  0  0  0  0  0  0  0  0
   -4.4790   -1.4293   -0.5661 H   0  0  0  0  0  0  0  0  0  0  0  0
   -2.5952   -2.4745    0.6345 H   0  0  0  0  0  0  0  0  0  0  0  0
   -2.8302   -3.2256   -0.9275 H   0  0  0  0  0  0  0  0  0  0  0  0
    1.7217   -2.2707   -1.3514 H   0  0  0  0  0  0  0  0  0  0  0  0
    1.8833   -1.8302    0.3353 H   0  0  0  0  0  0  0  0  0  0  0  0
    0.7164    3.1122   -0.2341 H   0  0  0  0  0  0  0  0  0  0  0  0
    0.2640    2.3879   -1.7697 H   0  0  0  0  0  0  0  0  0  0  0  0
    0.1973   -1.6860    1.5494 H   0  0  0  0  0  0  0  0  0  0  0  0
    0.1064    0.0597    1.7392 H   0  0  0  0  0  0  0  0  0  0  0  0
   -1.3435   -0.9324    1.7968 H   0  0  0  0  0  0  0  0  0  0  0  0
    4.0506   -1.7530   -0.8187 H   0  0  0  0  0  0  0  0  0  0  0  0
    3.4143   -0.6261   -1.9964 H   0  0  0  0  0  0  0  0  0  0  0  0
   -3.7818    1.2838   -2.1123 H   0  0  0  0  0  0  0  0  0  0  0  0
   -5.0169    1.0192   -0.8757 H   0  0  0  0  0  0  0  0  0  0  0  0
   -3.8154    2.2781   -0.6530 H   0  0  0  0  0  0  0  0  0  0  0  0
    2.8690    2.3290    0.1861 H   0  0  0  0  0  0  0  0  0  0  0  0
    5.3638    1.7030    0.1166 H   0  0  0  0  0  0  0  0  0  0  0  0
    5.8223    0.1551   -0.6104 H   0  0  0  0  0  0  0  0  0  0  0  0
    4.8887    1.3241   -1.5407 H   0  0  0  0  0  0  0  0  0  0  0  0
    3.2886    0.2729    2.1714 H   0  0  0  0  0  0  0  0  0  0  0  0
   -3.2457    1.6158    2.5664 H   0  0  0  0  0  0  0  0  0  0  0  0
    4.9099   -1.3483    2.8166 H   0  0  0  0  0  0  0  0  0  0  0  0
    5.4776   -1.5653    1.0657 H   0  0  0  0  0  0  0  0  0  0  0  0
  1 19  1  0  0  0  0
  1 50  1  0  0  0  0
  2 19  2  0  0  0  0
  3  4  1  0  0  0  0
  3  5  1  0  0  0  0
  3  7  1  0  0  0  0
  3 14  1  0  0  0  0
  4  6  1  0  0  0  0
  4  8  1  0  0  0  0
  4 23  1  0  0  0  0
  5  9  1  0  0  0  0
  5 12  1  0  0  0  0
  5 24  1  0  0  0  0
  6 10  1  0  0  0  0
  6 17  1  0  0  0  0
  6 19  1  0  0  0  0
  7 11  1  0  0  0  0
  7 25  1  0  0  0  0
  7 26  1  0  0  0  0
  8 13  1  0  0  0  0
  8 27  1  0  0  0  0
  8 28  1  0  0  0  0
  9 13  1  0  0  0  0
  9 18  2  0  0  0  0
 10 11  1  0  0  0  0
 10 29  1  0  0  0  0
 10 30  1  0  0  0  0
 11 31  1  0  0  0  0
 11 32  1  0  0  0  0
 12 15  1  0  0  0  0
 12 33  1  0  0  0  0
 12 34  1  0  0  0  0
 13 35  1  0  0  0  0
 13 36  1  0  0  0  0
 14 37  1  0  0  0  0
 14 38  1  0  0  0  0
 14 39  1  0  0  0  0
 15 16  1  0  0  0  0
 15 40  1  0  0  0  0
 15 41  1  0  0  0  0
 16 18  1  0  0  0  0
 16 20  1  0  0  0  0
 16 21  1  0  0  0  0
 17 42  1  0  0  0  0
 17 43  1  0  0  0  0
 17 44  1  0  0  0  0
 18 45  1  0  0  0  0
 20 46  1  0  0  0  0
 20 47  1  0  0  0  0
 20 48  1  0  0  0  0
 21 22  2  0  0  0  0
 21 49  1  0  0  0  0
 22 51  1  0  0  0  0
 22 52  1  0  0  0  0
M  END
> <PUBCHEM_COMPOUND_CID>
10086296

> <PUBCHEM_CONFORMER_RMSD>
0.6

> <PUBCHEM_CONFORMER_DIVERSEORDER>
2
3
4
1

> <PUBCHEM_MMFF94_PARTIAL_CHARGES>
16
1 -0.65
13 0.14
16 0.28
18 -0.29
19 0.66
2 -0.57
21 -0.29
22 -0.3
45 0.15
49 0.15
5 0.14
50 0.5
51 0.15
52 0.15
6 0.06
9 -0.28

> <PUBCHEM_EFFECTIVE_ROTOR_COUNT>
3.8

> <PUBCHEM_PHARMACOPHORE_FEATURES>
7
1 1 acceptor
1 2 acceptor
1 22 hydrophobe
3 1 2 19 anion
6 3 4 5 8 9 13 rings
6 3 4 6 7 10 11 rings
6 5 9 12 15 16 18 rings

> <PUBCHEM_HEAVY_ATOM_COUNT>
22

> <PUBCHEM_ATOM_DEF_STEREO_COUNT>
5

> <PUBCHEM_ATOM_UDEF_STEREO_COUNT>
0

> <PUBCHEM_BOND_DEF_STEREO_COUNT>
0

> <PUBCHEM_BOND_UDEF_STEREO_COUNT>
0

> <PUBCHEM_ISOTOPIC_ATOM_COUNT>
0

> <PUBCHEM_COMPONENT_COUNT>
1

> <PUBCHEM_CACTVS_TAUTO_COUNT>
1

> <PUBCHEM_CONFORMER_ID>
0099E79800000002

> <PUBCHEM_MMFF94_ENERGY>
69.8309

> <PUBCHEM_FEATURE_SELFOVERLAP>
35.609

> <PUBCHEM_SHAPE_FINGERPRINT>
10062212 137 18335974354674480071
10366900 7 17561077016792428928
10646746 165 16774085059447096592
10863032 1 16845294903844036438
11132069 177 18343015575625283444
11370993 70 17704346667489090094
11796584 16 16660917799330296138
12173636 292 17632301129587593407
12251169 10 18271536363384807381
12403814 3 18259982669625557965
12553582 1 18410862070399640620
12633257 1 18273491269611014560
12670545 47 17917702531019525744
12788726 201 18335425617396075848
13140716 1 18340207521675462824
13224815 77 18408887343162872822
13533116 47 17274546412655699271
13583140 156 17530963609273496101
13675066 3 17603580820628413686
14004511 7 18131356301538783630
14081887 123 18060131020829019360
14178342 30 18272936032976095678
14251764 38 15841548591664216648
14289901 80 16630518579049513134
15196674 1 18411134753641288150
15209294 21 17775012245404167953
15309172 13 18412550890142249375
15375462 189 18114462344539230008
15788980 27 18113893845303407014
1601671 61 18272094920235635532
16945 1 18412268311147914789
17349148 13 18271232919608102079
1813 80 17822019709102593300
18186145 218 17988934327025970806
200 152 18060131085659607055
20261772 1 18411425020284204066
21033648 29 17988365862419119721
21267235 1 18339651151606872478
21421861 104 17970340426360664482
21501502 16 18194126441163568389
23184049 59 18341062834347508301
23366157 5 17898566742213938868
23402539 116 18339626893710329150
23419403 2 17483354837521878541
23557571 272 17417542422258652527
23559900 14 18272091557302649310
2748010 2 17978233759600089476
2838139 119 17678435503987422669
296302 2 18342741840506733220
34934 24 18335696113855395311
350125 39 18269561705416246733
5104073 3 18411133671304248602
58807428 26 18341333301323630435
69090 78 18342172263134035223
6992083 37 18411705417387731941
7064713 232 18131071502326048728
90316 7 18335973203797597324
9709674 26 18272092716411199182

> <PUBCHEM_SHAPE_MULTIPOLES>
441.01
8.95
2.09
1.47
5.32
0.01
0.69
-0.26
2.1
-0.77
-0.37
-0.13
-0.22
-0.7

> <PUBCHEM_SHAPE_SELFOVERLAP>
930.373

> <PUBCHEM_SHAPE_VOLUME>
243.7

> <PUBCHEM_COORDINATE_TYPE>
2
5
10

$$$$
