160921
  -OEChem-09052004273D

 41 43  0     0  0  0  0  0  0999 V2000
    0.2541    0.3900   -0.1729 O   0  0  0  0  0  0  0  0  0  0  0  0
   -1.2506    2.6219   -0.4844 O   0  0  0  0  0  0  0  0  0  0  0  0
   -5.2587    0.0405   -0.2117 O   0  0  0  0  0  0  0  0  0  0  0  0
   -3.7998   -2.2432    0.1047 O   0  0  0  0  0  0  0  0  0  0  0  0
   -4.0016    2.4725   -0.5093 O   0  0  0  0  0  0  0  0  0  0  0  0
   -1.4181   -3.2979    0.2756 O   0  0  0  0  0  0  0  0  0  0  0  0
    6.5746    0.2471   -0.0733 O   0  0  0  0  0  0  0  0  0  0  0  0
   -1.7480   -0.9776   -0.0268 C   0  0  0  0  0  0  0  0  0  0  0  0
   -1.1109    0.2532   -0.1761 C   0  0  0  0  0  0  0  0  0  0  0  0
   -1.8669    1.4143   -0.3386 C   0  0  0  0  0  0  0  0  0  0  0  0
    1.0315   -0.7459   -0.0055 C   0  0  0  0  0  0  0  0  0  0  0  0
   -3.1424   -1.0575   -0.0386 C   0  0  0  0  0  0  0  0  0  0  0  0
   -0.9264   -2.1860    0.1414 C   0  0  0  0  0  0  0  0  0  0  0  0
   -3.8961    0.1057   -0.2009 C   0  0  0  0  0  0  0  0  0  0  0  0
   -3.2599    1.3389   -0.3505 C   0  0  0  0  0  0  0  0  0  0  0  0
    0.5368   -1.9854    0.1409 C   0  0  0  0  0  0  0  0  0  0  0  0
    2.4850   -0.4862   -0.0233 C   0  0  0  0  0  0  0  0  0  0  0  0
    3.3665   -1.4573   -0.5045 C   0  0  0  0  0  0  0  0  0  0  0  0
    2.9851    0.7328    0.4413 C   0  0  0  0  0  0  0  0  0  0  0  0
    4.7394   -1.2111   -0.5211 C   0  0  0  0  0  0  0  0  0  0  0  0
    4.3580    0.9793    0.4247 C   0  0  0  0  0  0  0  0  0  0  0  0
    5.2353    0.0073   -0.0566 C   0  0  0  0  0  0  0  0  0  0  0  0
   -0.9790    3.3574    0.7063 C   0  0  0  0  0  0  0  0  0  0  0  0
   -5.9219    0.1739    1.0429 C   0  0  0  0  0  0  0  0  0  0  0  0
    7.0140    1.5134    0.4161 C   0  0  0  0  0  0  0  0  0  0  0  0
    1.1463   -2.8700    0.2839 H   0  0  0  0  0  0  0  0  0  0  0  0
    3.0187   -2.4098   -0.8953 H   0  0  0  0  0  0  0  0  0  0  0  0
    2.3241    1.5043    0.8293 H   0  0  0  0  0  0  0  0  0  0  0  0
    5.4178   -1.9699   -0.9015 H   0  0  0  0  0  0  0  0  0  0  0  0
    4.6756    1.9455    0.8018 H   0  0  0  0  0  0  0  0  0  0  0  0
   -3.1721   -2.9731    0.2154 H   0  0  0  0  0  0  0  0  0  0  0  0
   -4.9421    2.2268   -0.5414 H   0  0  0  0  0  0  0  0  0  0  0  0
   -0.4857    4.2921    0.4262 H   0  0  0  0  0  0  0  0  0  0  0  0
   -1.9086    3.5967    1.2323 H   0  0  0  0  0  0  0  0  0  0  0  0
   -0.3104    2.7934    1.3643 H   0  0  0  0  0  0  0  0  0  0  0  0
   -5.6764    1.1309    1.5140 H   0  0  0  0  0  0  0  0  0  0  0  0
   -7.0003    0.1392    0.8653 H   0  0  0  0  0  0  0  0  0  0  0  0
   -5.6514   -0.6510    1.7095 H   0  0  0  0  0  0  0  0  0  0  0  0
    6.7760    1.6390    1.4778 H   0  0  0  0  0  0  0  0  0  0  0  0
    6.6296    2.3366   -0.1957 H   0  0  0  0  0  0  0  0  0  0  0  0
    8.1053    1.5327    0.3287 H   0  0  0  0  0  0  0  0  0  0  0  0
  1  9  1  0  0  0  0
  1 11  1  0  0  0  0
  2 10  1  0  0  0  0
  2 23  1  0  0  0  0
  3 14  1  0  0  0  0
  3 24  1  0  0  0  0
  4 12  1  0  0  0  0
  4 31  1  0  0  0  0
  5 15  1  0  0  0  0
  5 32  1  0  0  0  0
  6 13  2  0  0  0  0
  7 22  1  0  0  0  0
  7 25  1  0  0  0  0
  8  9  1  0  0  0  0
  8 12  2  0  0  0  0
  8 13  1  0  0  0  0
  9 10  2  0  0  0  0
 10 15  1  0  0  0  0
 11 16  2  0  0  0  0
 11 17  1  0  0  0  0
 12 14  1  0  0  0  0
 13 16  1  0  0  0  0
 14 15  2  0  0  0  0
 16 26  1  0  0  0  0
 17 18  2  0  0  0  0
 17 19  1  0  0  0  0
 18 20  1  0  0  0  0
 18 27  1  0  0  0  0
 19 21  2  0  0  0  0
 19 28  1  0  0  0  0
 20 22  2  0  0  0  0
 20 29  1  0  0  0  0
 21 22  1  0  0  0  0
 21 30  1  0  0  0  0
 23 33  1  0  0  0  0
 23 34  1  0  0  0  0
 23 35  1  0  0  0  0
 24 36  1  0  0  0  0
 24 37  1  0  0  0  0
 24 38  1  0  0  0  0
 25 39  1  0  0  0  0
 25 40  1  0  0  0  0
 25 41  1  0  0  0  0
M  END
> <PUBCHEM_COMPOUND_CID>
160921

> <PUBCHEM_CONFORMER_RMSD>
0.8

> <PUBCHEM_CONFORMER_DIVERSEORDER>
1
2

> <PUBCHEM_MMFF94_PARTIAL_CHARGES>
32
1 -0.16
10 0.08
11 0.05
12 0.08
13 0.47
14 0.08
15 0.08
16 -0.14
17 0.03
18 -0.15
19 -0.15
2 -0.36
20 -0.15
21 -0.15
22 0.08
23 0.28
24 0.28
25 0.28
26 0.15
27 0.15
28 0.15
29 0.15
3 -0.36
30 0.15
31 0.45
32 0.45
4 -0.53
5 -0.53
6 -0.57
7 -0.36
8 0.09
9 0.08

> <PUBCHEM_EFFECTIVE_ROTOR_COUNT>
4

> <PUBCHEM_PHARMACOPHORE_FEATURES>
10
1 1 acceptor
1 2 acceptor
1 3 acceptor
1 4 donor
1 5 donor
1 6 acceptor
1 7 acceptor
6 1 8 9 11 13 16 rings
6 17 18 19 20 21 22 rings
6 8 9 10 12 14 15 rings

> <PUBCHEM_HEAVY_ATOM_COUNT>
25

> <PUBCHEM_ATOM_DEF_STEREO_COUNT>
0

> <PUBCHEM_ATOM_UDEF_STEREO_COUNT>
0

> <PUBCHEM_BOND_DEF_STEREO_COUNT>
0

> <PUBCHEM_BOND_UDEF_STEREO_COUNT>
0

> <PUBCHEM_ISOTOPIC_ATOM_COUNT>
0

> <PUBCHEM_COMPONENT_COUNT>
1

> <PUBCHEM_CACTVS_TAUTO_COUNT>
12

> <PUBCHEM_CONFORMER_ID>
0002749900000001

> <PUBCHEM_MMFF94_ENERGY>
106.4026

> <PUBCHEM_FEATURE_SELFOVERLAP>
50.783

> <PUBCHEM_SHAPE_FINGERPRINT>
10 15 18261390092439651224
10319926 262 18339061749989027618
10411042 1 17832425676306871659
10498660 4 18336541603816415525
1100329 8 18337676433524509033
11578080 2 14188198577865294361
11595378 159 17749374946007114632
12035758 1 18263099824198696147
12107183 9 17757540860248158186
12236239 1 17385442107207756846
12390115 104 18270692947825055833
12403259 415 18337954489227197828
12596602 18 17168142334550404368
12788726 201 18341889637000906328
12838862 33 18336246995510189205
12916748 109 18410295779309516968
13140716 1 18191594257495332067
13402501 40 18342736334401143576
14341114 176 18410295783572926852
14790565 3 18339649936658998857
15042514 8 18190467241345931043
15196674 1 18337670806584451918
16087824 20 18410289208948804767
18336668 15 17968096460156020101
18608769 82 18339080492218757738
20510252 161 18341049622991267089
20645477 56 18410008853586920946
20645477 70 17203055084908561022
21033648 29 18339911654221541880
21236236 1 18341330093325971151
21267235 1 18336273392046601599
21279426 13 18268430123035712574
22122407 14 16343431703475239483
221357 26 18202283572497210116
2297311 6 18341058449375952716
23402539 116 18341326777210071423
23557571 272 18341336669083814662
23559900 14 18341888653954425080
283562 15 18338796707087724873
3004659 81 18335423418863229214
335352 9 18410009975185133461
34797466 226 17988932180296677444
350125 39 18411139173368759912
3545911 37 18412263935193275388
4073 2 18114747140116842450
4214541 1 18410011027230535550
445580 37 18335995237844742612
5104073 3 18189619336800576315
5486654 2 18410575080642528829
59755656 215 18338519642525547206
59755656 520 17022900177216158698
9709674 26 18413675708018501150
9981440 41 18187367592858980331

> <PUBCHEM_SHAPE_MULTIPOLES>
473.4
13.67
2.98
0.74
14.12
0.55
0.05
3.51
1.14
-1.89
0.2
-0.19
0.11
0.83

> <PUBCHEM_SHAPE_SELFOVERLAP>
1041.457

> <PUBCHEM_SHAPE_VOLUME>
255.6

> <PUBCHEM_COORDINATE_TYPE>
2
5
10

$$$$
