11770473
  -OEChem-09052004303D

 41 42  0     1  0  0  0  0  0999 V2000
    3.4477   -0.0166    1.2826 O   0  0  0  0  0  0  0  0  0  0  0  0
   -4.0386   -1.4255   -0.3422 O   0  0  0  0  0  0  0  0  0  0  0  0
   -0.8874    1.2737    0.1126 C   0  0  2  0  0  0  0  0  0  0  0  0
    1.7659   -0.0259   -0.4307 C   0  0  2  0  0  0  0  0  0  0  0  0
    0.2197    1.9264   -0.7608 C   0  0  0  0  0  0  0  0  0  0  0  0
   -0.6928   -0.2507    0.1960 C   0  0  0  0  0  0  0  0  0  0  0  0
    1.6391    1.4984   -0.4003 C   0  0  0  0  0  0  0  0  0  0  0  0
    0.7375   -0.6714    0.5078 C   0  0  0  0  0  0  0  0  0  0  0  0
   -2.2351    1.6347   -0.5557 C   0  0  0  0  0  0  0  0  0  0  0  0
    3.1845   -0.4511   -0.0519 C   0  0  0  0  0  0  0  0  0  0  0  0
   -0.8510    1.8713    1.5376 C   0  0  0  0  0  0  0  0  0  0  0  0
   -1.7041   -1.1373    0.0369 C   0  0  0  0  0  0  0  0  0  0  0  0
   -3.3900    0.8343    0.0043 C   0  0  0  0  0  0  0  0  0  0  0  0
   -3.1130   -0.6378   -0.1427 C   0  0  0  0  0  0  0  0  0  0  0  0
    4.2119    0.1894   -0.9837 C   0  0  0  0  0  0  0  0  0  0  0  0
    3.3126   -1.9725   -0.0745 C   0  0  0  0  0  0  0  0  0  0  0  0
   -1.6070   -2.6394    0.0648 C   0  0  0  0  0  0  0  0  0  0  0  0
    1.5549   -0.3664   -1.4550 H   0  0  0  0  0  0  0  0  0  0  0  0
    0.1495    3.0203   -0.6996 H   0  0  0  0  0  0  0  0  0  0  0  0
    0.0548    1.6696   -1.8168 H   0  0  0  0  0  0  0  0  0  0  0  0
    2.3079    1.9662   -1.1303 H   0  0  0  0  0  0  0  0  0  0  0  0
    1.9095    1.9027    0.5816 H   0  0  0  0  0  0  0  0  0  0  0  0
    0.9461   -0.4000    1.5504 H   0  0  0  0  0  0  0  0  0  0  0  0
    0.8340   -1.7537    0.4638 H   0  0  0  0  0  0  0  0  0  0  0  0
   -2.1789    1.4393   -1.6361 H   0  0  0  0  0  0  0  0  0  0  0  0
   -2.4440    2.7065   -0.4486 H   0  0  0  0  0  0  0  0  0  0  0  0
   -1.0484    2.9492    1.5158 H   0  0  0  0  0  0  0  0  0  0  0  0
   -1.6004    1.4105    2.1906 H   0  0  0  0  0  0  0  0  0  0  0  0
    0.1203    1.7321    2.0230 H   0  0  0  0  0  0  0  0  0  0  0  0
   -4.2986    1.0747   -0.5592 H   0  0  0  0  0  0  0  0  0  0  0  0
   -3.5791    1.0560    1.0588 H   0  0  0  0  0  0  0  0  0  0  0  0
    5.2099   -0.2259   -0.7978 H   0  0  0  0  0  0  0  0  0  0  0  0
    3.9705    0.0163   -2.0375 H   0  0  0  0  0  0  0  0  0  0  0  0
    4.3186    1.2648   -0.8078 H   0  0  0  0  0  0  0  0  0  0  0  0
    2.8008   -2.4499    0.7675 H   0  0  0  0  0  0  0  0  0  0  0  0
    4.3632   -2.2693    0.0351 H   0  0  0  0  0  0  0  0  0  0  0  0
    2.9459   -2.3998   -1.0136 H   0  0  0  0  0  0  0  0  0  0  0  0
   -2.0833   -3.0651   -0.8258 H   0  0  0  0  0  0  0  0  0  0  0  0
   -2.1203   -3.0318    0.9493 H   0  0  0  0  0  0  0  0  0  0  0  0
   -0.5901   -3.0310    0.0748 H   0  0  0  0  0  0  0  0  0  0  0  0
    4.3539   -0.2844    1.5122 H   0  0  0  0  0  0  0  0  0  0  0  0
  1 10  1  0  0  0  0
  1 41  1  0  0  0  0
  2 14  2  0  0  0  0
  3  5  1  0  0  0  0
  3  6  1  0  0  0  0
  3  9  1  0  0  0  0
  3 11  1  0  0  0  0
  4  7  1  0  0  0  0
  4  8  1  0  0  0  0
  4 10  1  0  0  0  0
  4 18  1  0  0  0  0
  5  7  1  0  0  0  0
  5 19  1  0  0  0  0
  5 20  1  0  0  0  0
  6  8  1  0  0  0  0
  6 12  2  0  0  0  0
  7 21  1  0  0  0  0
  7 22  1  0  0  0  0
  8 23  1  0  0  0  0
  8 24  1  0  0  0  0
  9 13  1  0  0  0  0
  9 25  1  0  0  0  0
  9 26  1  0  0  0  0
 10 15  1  0  0  0  0
 10 16  1  0  0  0  0
 11 27  1  0  0  0  0
 11 28  1  0  0  0  0
 11 29  1  0  0  0  0
 12 14  1  0  0  0  0
 12 17  1  0  0  0  0
 13 14  1  0  0  0  0
 13 30  1  0  0  0  0
 13 31  1  0  0  0  0
 15 32  1  0  0  0  0
 15 33  1  0  0  0  0
 15 34  1  0  0  0  0
 16 35  1  0  0  0  0
 16 36  1  0  0  0  0
 16 37  1  0  0  0  0
 17 38  1  0  0  0  0
 17 39  1  0  0  0  0
 17 40  1  0  0  0  0
M  END
> <PUBCHEM_COMPOUND_CID>
11770473

> <PUBCHEM_CONFORMER_RMSD>
0.6

> <PUBCHEM_CONFORMER_DIVERSEORDER>
1
4
2
3

> <PUBCHEM_MMFF94_PARTIAL_CHARGES>
11
1 -0.68
10 0.28
12 -0.12
13 0.06
14 0.49
17 0.14
2 -0.57
3 0.14
41 0.4
6 -0.28
8 0.14

> <PUBCHEM_EFFECTIVE_ROTOR_COUNT>
2.2

> <PUBCHEM_PHARMACOPHORE_FEATURES>
6
1 1 acceptor
1 1 donor
1 2 acceptor
3 10 15 16 hydrophobe
6 3 4 5 6 7 8 rings
6 3 6 9 12 13 14 rings

> <PUBCHEM_HEAVY_ATOM_COUNT>
17

> <PUBCHEM_ATOM_DEF_STEREO_COUNT>
2

> <PUBCHEM_ATOM_UDEF_STEREO_COUNT>
0

> <PUBCHEM_BOND_DEF_STEREO_COUNT>
0

> <PUBCHEM_BOND_UDEF_STEREO_COUNT>
0

> <PUBCHEM_ISOTOPIC_ATOM_COUNT>
0

> <PUBCHEM_COMPONENT_COUNT>
1

> <PUBCHEM_CACTVS_TAUTO_COUNT>
5

> <PUBCHEM_CONFORMER_ID>
00B39A6900000001

> <PUBCHEM_MMFF94_ENERGY>
44.1325

> <PUBCHEM_FEATURE_SELFOVERLAP>
30.466

> <PUBCHEM_SHAPE_FINGERPRINT>
10062212 137 18042115484147831707
10366900 7 17561081380579311472
10616163 171 18411143558282683446
10967382 1 18336828700915677686
11132069 177 18337384942135450896
11578080 2 17315881547274699476
11769659 78 18411134740503321253
12403814 3 17676488320106989125
12553582 1 18337112370626165734
12592029 89 17896603865034209345
13140716 1 18193277622577052595
14115302 16 18408890667467741925
14144814 61 18334858307533228178
14289901 80 16056873603015661036
14993402 34 18334296439806161541
15001771 113 18338807813319153857
15196674 1 18408886204743481206
15415430 112 18336276720693696638
15536298 74 18340770458997417164
15669948 3 18408321103275383502
15775835 57 18041849410781607956
16752209 62 18336538344242017419
16945 1 18408039636798722293
17804303 29 18341897398038211173
200 152 18343022202965549420
20281475 54 18410577249616850468
20510252 161 18271806787342126441
20871999 31 18407761430144307733
21267235 1 18336557087205256974
21501502 16 18337957912532663829
21634736 98 18190183579597149566
22802520 49 18044099183729230873
2334 1 17832709349883987163
23402539 116 18341323414255739014
23419403 2 17186662654205630660
23463225 33 18335140851941055838
23557571 272 18273218612302207030
23559900 14 18271802385670359344
2748010 2 17832141993436428003
3312278 4 18410581720619880722
34934 24 18335416893995036102
427121 178 16267186976328453697
474 4 16806743965355052836
5104073 3 18409448063870019248
69090 78 18411133611042902007
7364860 26 18196091268648586804
81228 2 18411146809271616088
8809292 202 18262804089244980739
9709674 26 18412269419550683550

> <PUBCHEM_SHAPE_MULTIPOLES>
338.11
6.64
2.38
0.98
2.75
0.55
-0.24
1.98
0.88
-0.99
0
0.31
-0.37
-0.3

> <PUBCHEM_SHAPE_SELFOVERLAP>
700.106

> <PUBCHEM_SHAPE_VOLUME>
192

> <PUBCHEM_COORDINATE_TYPE>
2
5
10

$$$$
