129887796
  -OEChem-09052004233D

 51 52  0     1  0  0  0  0  0999 V2000
   -0.5711    0.8306   -0.3694 O   0  0  0  0  0  0  0  0  0  0  0  0
   -0.4206   -2.7445   -0.8621 O   0  0  0  0  0  0  0  0  0  0  0  0
   -2.8778   -2.0315   -0.3204 O   0  0  0  0  0  0  0  0  0  0  0  0
   -4.4096    0.0671    0.8925 O   0  0  0  0  0  0  0  0  0  0  0  0
   -3.7615    2.6502   -0.2160 O   0  0  0  0  0  0  0  0  0  0  0  0
    2.0959   -2.2754   -1.5546 O   0  0  0  0  0  0  0  0  0  0  0  0
   -0.3975   -2.2340    1.8126 O   0  0  0  0  0  0  0  0  0  0  0  0
    0.3597    3.2839   -1.1585 O   0  0  0  0  0  0  0  0  0  0  0  0
   -1.0634   -0.4659   -0.7185 C   0  0  1  0  0  0  0  0  0  0  0  0
    0.0678   -1.4589   -0.4704 C   0  0  2  0  0  0  0  0  0  0  0  0
   -2.3135   -0.7939    0.1051 C   0  0  1  0  0  0  0  0  0  0  0  0
   -3.3730    0.2951   -0.0645 C   0  0  2  0  0  0  0  0  0  0  0  0
   -2.7808    1.6873    0.1603 C   0  0  1  0  0  0  0  0  0  0  0  0
   -1.5040    1.8728   -0.6662 C   0  0  1  0  0  0  0  0  0  0  0  0
    1.3060   -1.1020   -1.3360 C   0  0  1  0  0  0  0  0  0  0  0  0
    0.4057   -1.4538    1.0063 C   0  0  0  0  0  0  0  0  0  0  0  0
   -0.8101    3.1976   -0.3653 C   0  0  0  0  0  0  0  0  0  0  0  0
    2.1995   -0.0693   -0.6965 C   0  0  0  0  0  0  0  0  0  0  0  0
    1.4151   -0.7112    1.4935 C   0  0  0  0  0  0  0  0  0  0  0  0
    2.2465    0.1283    0.6372 C   0  0  0  0  0  0  0  0  0  0  0  0
    3.1696    1.1044    1.1749 C   0  0  0  0  0  0  0  0  0  0  0  0
    2.8928   -2.1473   -2.7204 C   0  0  0  0  0  0  0  0  0  0  0  0
    0.3704   -3.2052    2.4960 C   0  0  0  0  0  0  0  0  0  0  0  0
    3.4004    2.2830    0.5953 C   0  0  0  0  0  0  0  0  0  0  0  0
    4.3535    3.2926    1.1450 C   0  0  0  0  0  0  0  0  0  0  0  0
   -1.3229   -0.4822   -1.7870 H   0  0  0  0  0  0  0  0  0  0  0  0
   -2.1162   -0.8634    1.1765 H   0  0  0  0  0  0  0  0  0  0  0  0
   -3.8491    0.2270   -1.0500 H   0  0  0  0  0  0  0  0  0  0  0  0
   -2.5712    1.8314    1.2271 H   0  0  0  0  0  0  0  0  0  0  0  0
   -1.7256    1.8438   -1.7417 H   0  0  0  0  0  0  0  0  0  0  0  0
    0.9494   -0.7274   -2.3052 H   0  0  0  0  0  0  0  0  0  0  0  0
   -0.5046    3.2471    0.6852 H   0  0  0  0  0  0  0  0  0  0  0  0
   -1.4570    4.0495   -0.5953 H   0  0  0  0  0  0  0  0  0  0  0  0
    2.8352    0.4928   -1.3760 H   0  0  0  0  0  0  0  0  0  0  0  0
   -0.5715   -2.7273   -1.8228 H   0  0  0  0  0  0  0  0  0  0  0  0
    1.6230   -0.6849    2.5590 H   0  0  0  0  0  0  0  0  0  0  0  0
   -3.0619   -1.9666   -1.2730 H   0  0  0  0  0  0  0  0  0  0  0  0
   -4.0258    0.1512    1.7819 H   0  0  0  0  0  0  0  0  0  0  0  0
   -3.9240    2.5565   -1.1702 H   0  0  0  0  0  0  0  0  0  0  0  0
    0.7917    4.1278   -0.9421 H   0  0  0  0  0  0  0  0  0  0  0  0
    3.6549    0.8521    2.1141 H   0  0  0  0  0  0  0  0  0  0  0  0
    3.4393   -3.0847   -2.8593 H   0  0  0  0  0  0  0  0  0  0  0  0
    3.6280   -1.3436   -2.6233 H   0  0  0  0  0  0  0  0  0  0  0  0
    2.2691   -1.9871   -3.6056 H   0  0  0  0  0  0  0  0  0  0  0  0
   -0.3212   -3.9312    2.9351 H   0  0  0  0  0  0  0  0  0  0  0  0
    0.9414   -2.7607    3.3177 H   0  0  0  0  0  0  0  0  0  0  0  0
    1.0366   -3.7514    1.8177 H   0  0  0  0  0  0  0  0  0  0  0  0
    2.8994    2.5701   -0.3246 H   0  0  0  0  0  0  0  0  0  0  0  0
    3.8241    4.2262    1.3586 H   0  0  0  0  0  0  0  0  0  0  0  0
    4.8333    2.9538    2.0687 H   0  0  0  0  0  0  0  0  0  0  0  0
    5.1377    3.5024    0.4111 H   0  0  0  0  0  0  0  0  0  0  0  0
  1  9  1  0  0  0  0
  1 14  1  0  0  0  0
  2 10  1  0  0  0  0
  2 35  1  0  0  0  0
  3 11  1  0  0  0  0
  3 37  1  0  0  0  0
  4 12  1  0  0  0  0
  4 38  1  0  0  0  0
  5 13  1  0  0  0  0
  5 39  1  0  0  0  0
  6 15  1  0  0  0  0
  6 22  1  0  0  0  0
  7 16  1  0  0  0  0
  7 23  1  0  0  0  0
  8 17  1  0  0  0  0
  8 40  1  0  0  0  0
  9 10  1  0  0  0  0
  9 11  1  0  0  0  0
  9 26  1  0  0  0  0
 10 15  1  0  0  0  0
 10 16  1  0  0  0  0
 11 12  1  0  0  0  0
 11 27  1  0  0  0  0
 12 13  1  0  0  0  0
 12 28  1  0  0  0  0
 13 14  1  0  0  0  0
 13 29  1  0  0  0  0
 14 17  1  0  0  0  0
 14 30  1  0  0  0  0
 15 18  1  0  0  0  0
 15 31  1  0  0  0  0
 16 19  2  0  0  0  0
 17 32  1  0  0  0  0
 17 33  1  0  0  0  0
 18 20  2  0  0  0  0
 18 34  1  0  0  0  0
 19 20  1  0  0  0  0
 19 36  1  0  0  0  0
 20 21  1  0  0  0  0
 21 24  2  3  0  0  0
 21 41  1  0  0  0  0
 22 42  1  0  0  0  0
 22 43  1  0  0  0  0
 22 44  1  0  0  0  0
 23 45  1  0  0  0  0
 23 46  1  0  0  0  0
 23 47  1  0  0  0  0
 24 25  1  0  0  0  0
 24 48  1  0  0  0  0
 25 49  1  0  0  0  0
 25 50  1  0  0  0  0
 25 51  1  0  0  0  0
M  END
> <PUBCHEM_COMPOUND_CID>
129887796

> <PUBCHEM_CONFORMER_RMSD>
0.8

> <PUBCHEM_CONFORMER_DIVERSEORDER>
1
39
9
8
5
41
29
47
48
34
33
14
35
45
36
31
49
13
7
3
26
52
28
43
51
38
42
6
27
11
18
23
30
16
50
24
12
46
19
17
37
4
22
21
53
32
40
2
25
20
44
15
10

> <PUBCHEM_MMFF94_PARTIAL_CHARGES>
33
1 -0.56
10 0.42
11 0.28
12 0.28
13 0.28
14 0.28
15 0.42
16 -0.06
17 0.28
18 -0.29
19 -0.15
2 -0.68
21 -0.15
22 0.28
23 0.28
24 -0.29
25 0.14
3 -0.68
34 0.15
35 0.4
36 0.15
37 0.4
38 0.4
39 0.4
4 -0.68
40 0.4
41 0.15
48 0.15
5 -0.68
6 -0.56
7 -0.36
8 -0.68
9 0.28

> <PUBCHEM_EFFECTIVE_ROTOR_COUNT>
6.6

> <PUBCHEM_PHARMACOPHORE_FEATURES>
16
1 1 acceptor
1 2 acceptor
1 2 donor
1 25 hydrophobe
1 3 acceptor
1 3 donor
1 4 acceptor
1 4 donor
1 5 acceptor
1 5 donor
1 6 acceptor
1 7 acceptor
1 8 acceptor
1 8 donor
6 1 9 11 12 13 14 rings
6 10 15 16 18 19 20 rings

> <PUBCHEM_HEAVY_ATOM_COUNT>
25

> <PUBCHEM_ATOM_DEF_STEREO_COUNT>
5

> <PUBCHEM_ATOM_UDEF_STEREO_COUNT>
2

> <PUBCHEM_BOND_DEF_STEREO_COUNT>
0

> <PUBCHEM_BOND_UDEF_STEREO_COUNT>
1

> <PUBCHEM_ISOTOPIC_ATOM_COUNT>
0

> <PUBCHEM_COMPONENT_COUNT>
1

> <PUBCHEM_CACTVS_TAUTO_COUNT>
1

> <PUBCHEM_CONFORMER_ID>
07BDEE3400000001

> <PUBCHEM_MMFF94_ENERGY>
82.7319

> <PUBCHEM_FEATURE_SELFOVERLAP>
81.255

> <PUBCHEM_SHAPE_FINGERPRINT>
10064457 181 12721664045671542496
10165383 225 17488187186714591618
10863032 1 17489877058903931995
10906281 52 18048045352388760437
10948715 1 18412819209496826536
1100329 8 17684359942856535963
11221954 11 18412261765918637216
11578080 2 17557178225558705235
12156800 1 14135011093787172496
13140716 1 18334849472690938297
13544592 271 18195811992499407222
14223421 5 18044645400295180337
14787075 74 17682099320863727811
16945 1 17982989413767993234
18981168 100 17486757594234222065
20600515 1 17678454392651683302
21524375 3 18340186558261896696
23114952 82 17989218027159659678
23419403 2 17838661942844488786
23558518 356 18335982072646119948
23559900 14 18056475041819609669
238 59 17691363509529213212
2748010 2 18411423877865121197
3797600 57 16083662168612724313
392239 28 17825387650762997939
6287921 2 18272384082449672245
6438718 38 17981030131819645800
70251023 43 17985537858825958463
7097593 13 17466205458437365923
9925002 15 16401952368287318702

> <PUBCHEM_SHAPE_MULTIPOLES>
467.53
6.08
4.3
1.92
0.52
1.43
0.08
4.67
-0.97
-1.26
-0.09
-1.54
-1.98
1.88

> <PUBCHEM_SHAPE_SELFOVERLAP>
972.344

> <PUBCHEM_SHAPE_VOLUME>
264.7

> <PUBCHEM_COORDINATE_TYPE>
2
5
10

$$$$
