101263324
  -OEChem-09052004182D

149156  0     1  0  0  0  0  0999 V2000
   11.3261   -7.0393    0.0000 O   0  0  0  0  0  0  0  0  0  0  0  0
    9.4651    2.2192    0.0000 O   0  0  0  0  0  0  0  0  0  0  0  0
    8.5991    0.7192    0.0000 O   0  0  0  0  0  0  0  0  0  0  0  0
    8.8741   -6.3759    0.0000 O   0  0  0  0  0  0  0  0  0  0  0  0
   10.3775   -7.2362    0.0000 O   0  0  0  0  0  0  0  0  0  0  0  0
   14.6258    1.2251    0.0000 O   0  0  0  0  0  0  0  0  0  0  0  0
    7.7331    2.2192    0.0000 O   0  0  0  0  0  0  0  0  0  0  0  0
   13.0581   -7.0193    0.0000 O   0  0  0  0  0  0  0  0  0  0  0  0
    9.4651    4.2192    0.0000 O   0  0  0  0  0  0  0  0  0  0  0  0
    7.7331    5.2192    0.0000 O   0  0  0  0  0  0  0  0  0  0  0  0
    6.0010    4.2192    0.0000 O   0  0  0  0  0  0  0  0  0  0  0  0
    6.0010    1.2192    0.0000 O   0  0  0  0  0  0  0  0  0  0  0  0
    6.8671    5.7192    0.0000 O   0  0  0  0  0  0  0  0  0  0  0  0
    4.2690    1.2192    0.0000 O   0  0  0  0  0  0  0  0  0  0  0  0
    4.2690    5.2192    0.0000 O   0  0  0  0  0  0  0  0  0  0  0  0
    4.2690    7.2192    0.0000 O   0  0  0  0  0  0  0  0  0  0  0  0
    6.0010   -0.7808    0.0000 O   0  0  0  0  0  0  0  0  0  0  0  0
    6.0010    8.2192    0.0000 O   0  0  0  0  0  0  0  0  0  0  0  0
    4.2690   -1.7808    0.0000 O   0  0  0  0  0  0  0  0  0  0  0  0
    2.5369   -0.7808    0.0000 O   0  0  0  0  0  0  0  0  0  0  0  0
    2.5369    2.2192    0.0000 O   0  0  0  0  0  0  0  0  0  0  0  0
   10.3708   -2.3498    0.0000 C   0  0  1  0  0  0  0  0  0  0  0  0
   10.3631   -1.3499    0.0000 C   0  0  1  0  0  0  0  0  0  0  0  0
   11.2406   -2.8432    0.0000 C   0  0  1  0  0  0  0  0  0  0  0  0
   11.2252   -0.8432    0.0000 C   0  0  1  0  0  0  0  0  0  0  0  0
   11.2647   -3.8845    0.0000 C   0  0  2  0  0  0  0  0  0  0  0  0
   11.2332    0.1984    0.0000 C   0  0  2  0  0  0  0  0  0  0  0  0
   10.3708   -4.4192    0.0000 C   0  0  1  0  0  0  0  0  0  0  0  0
   10.3312    0.7192    0.0000 C   0  0  1  0  0  0  0  0  0  0  0  0
    9.4647   -2.8637    0.0000 C   0  0  0  0  0  0  0  0  0  0  0  0
    9.4492   -0.8501    0.0000 C   0  0  0  0  0  0  0  0  0  0  0  0
   12.1028   -2.3365    0.0000 C   0  0  0  0  0  0  0  0  0  0  0  0
   12.0951   -1.3365    0.0000 C   0  0  0  0  0  0  0  0  0  0  0  0
    9.4647   -3.9053    0.0000 C   0  0  0  0  0  0  0  0  0  0  0  0
    9.4331    0.1915    0.0000 C   0  0  0  0  0  0  0  0  0  0  0  0
   12.0009    0.8932    0.0000 C   0  0  1  0  0  0  0  0  0  0  0  0
   10.3708   -5.5042    0.0000 C   0  0  2  0  0  0  0  0  0  0  0  0
   12.2206   -4.3978    0.0000 C   0  0  0  0  0  0  0  0  0  0  0  0
    9.3847   -2.1838    0.0000 C   0  0  0  0  0  0  0  0  0  0  0  0
    9.3796   -1.5311    0.0000 C   0  0  0  0  0  0  0  0  0  0  0  0
   10.5491    1.7315    0.0000 C   0  0  0  0  0  0  0  0  0  0  0  0
   11.5790    1.8388    0.0000 C   0  0  0  0  0  0  0  0  0  0  0  0
   12.1229   -3.3712    0.0000 C   0  0  0  0  0  0  0  0  0  0  0  0
   11.3146   -6.0394    0.0000 C   0  0  1  0  0  0  0  0  0  0  0  0
   12.2457   -5.4825    0.0000 C   0  0  0  0  0  0  0  0  0  0  0  0
    9.4651    1.2192    0.0000 C   0  0  0  0  0  0  0  0  0  0  0  0
   12.9794    0.6870    0.0000 C   0  0  0  0  0  0  0  0  0  0  0  0
    9.3708   -5.5080    0.0000 C   0  0  0  0  0  0  0  0  0  0  0  0
    9.8741   -6.3721    0.0000 C   0  0  0  0  0  0  0  0  0  0  0  0
   13.6473    1.4313    0.0000 C   0  0  0  0  0  0  0  0  0  0  0  0
   13.2901   -0.2635    0.0000 C   0  0  0  0  0  0  0  0  0  0  0  0
    8.5991    2.7192    0.0000 C   0  0  2  0  0  0  0  0  0  0  0  0
   12.1979   -7.5293    0.0000 C   0  0  0  0  0  0  0  0  0  0  0  0
    8.5991    3.7192    0.0000 C   0  0  1  0  0  0  0  0  0  0  0  0
   12.2094   -8.5292    0.0000 C   0  0  0  0  0  0  0  0  0  0  0  0
    7.7331    4.2192    0.0000 C   0  0  2  0  0  0  0  0  0  0  0  0
    6.8671    2.7192    0.0000 C   0  0  1  0  0  0  0  0  0  0  0  0
    6.8671    3.7192    0.0000 C   0  0  1  0  0  0  0  0  0  0  0  0
    6.0010    2.2192    0.0000 C   0  0  0  0  0  0  0  0  0  0  0  0
    6.0010    5.2192    0.0000 C   0  0  2  0  0  0  0  0  0  0  0  0
    5.1350    5.7192    0.0000 C   0  0  1  0  0  0  0  0  0  0  0  0
    5.1350    0.7192    0.0000 C   0  0  2  0  0  0  0  0  0  0  0  0
    5.1350    6.7192    0.0000 C   0  0  1  0  0  0  0  0  0  0  0  0
    6.8671    6.7192    0.0000 C   0  0  2  0  0  0  0  0  0  0  0  0
    5.1350   -0.2808    0.0000 C   0  0  1  0  0  0  0  0  0  0  0  0
    6.0010    7.2192    0.0000 C   0  0  2  0  0  0  0  0  0  0  0  0
    4.2690   -0.7808    0.0000 C   0  0  2  0  0  0  0  0  0  0  0  0
    3.4030    0.7192    0.0000 C   0  0  1  0  0  0  0  0  0  0  0  0
    3.4030   -0.2808    0.0000 C   0  0  1  0  0  0  0  0  0  0  0  0
    7.7331    7.2192    0.0000 C   0  0  0  0  0  0  0  0  0  0  0  0
    2.5369    1.2192    0.0000 C   0  0  0  0  0  0  0  0  0  0  0  0
   11.9832   -3.2567    0.0000 H   0  0  0  0  0  0  0  0  0  0  0  0
   11.9613   -0.4182    0.0000 H   0  0  0  0  0  0  0  0  0  0  0  0
   12.0089   -0.1493    0.0000 H   0  0  0  0  0  0  0  0  0  0  0  0
    9.6363   -4.8470    0.0000 H   0  0  0  0  0  0  0  0  0  0  0  0
    9.2556   -2.2800    0.0000 H   0  0  0  0  0  0  0  0  0  0  0  0
    8.8539   -2.9698    0.0000 H   0  0  0  0  0  0  0  0  0  0  0  0
    8.8368   -0.7534    0.0000 H   0  0  0  0  0  0  0  0  0  0  0  0
    9.2492   -1.4369    0.0000 H   0  0  0  0  0  0  0  0  0  0  0  0
   12.3193   -2.9174    0.0000 H   0  0  0  0  0  0  0  0  0  0  0  0
   12.7125   -2.2241    0.0000 H   0  0  0  0  0  0  0  0  0  0  0  0
   12.7065   -1.4395    0.0000 H   0  0  0  0  0  0  0  0  0  0  0  0
   12.3026   -0.7523    0.0000 H   0  0  0  0  0  0  0  0  0  0  0  0
    8.8539   -3.7992    0.0000 H   0  0  0  0  0  0  0  0  0  0  0  0
    9.2557   -4.4890    0.0000 H   0  0  0  0  0  0  0  0  0  0  0  0
    9.2151    0.7719    0.0000 H   0  0  0  0  0  0  0  0  0  0  0  0
    8.8240    0.0760    0.0000 H   0  0  0  0  0  0  0  0  0  0  0  0
   12.1627    0.2947    0.0000 H   0  0  0  0  0  0  0  0  0  0  0  0
   12.8338   -4.4897    0.0000 H   0  0  0  0  0  0  0  0  0  0  0  0
   12.4161   -3.8094    0.0000 H   0  0  0  0  0  0  0  0  0  0  0  0
    9.4876   -1.5724    0.0000 H   0  0  0  0  0  0  0  0  0  0  0  0
    8.7733   -2.0808    0.0000 H   0  0  0  0  0  0  0  0  0  0  0  0
    9.2817   -2.7952    0.0000 H   0  0  0  0  0  0  0  0  0  0  0  0
    9.2673   -0.9213    0.0000 H   0  0  0  0  0  0  0  0  0  0  0  0
    8.7699   -1.6434    0.0000 H   0  0  0  0  0  0  0  0  0  0  0  0
    9.4920   -2.1408    0.0000 H   0  0  0  0  0  0  0  0  0  0  0  0
   10.5500    2.3515    0.0000 H   0  0  0  0  0  0  0  0  0  0  0  0
    9.9326    1.7975    0.0000 H   0  0  0  0  0  0  0  0  0  0  0  0
   12.1686    2.0306    0.0000 H   0  0  0  0  0  0  0  0  0  0  0  0
   11.4502    2.4453    0.0000 H   0  0  0  0  0  0  0  0  0  0  0  0
   12.4412   -3.9033    0.0000 H   0  0  0  0  0  0  0  0  0  0  0  0
   12.6550   -3.0530    0.0000 H   0  0  0  0  0  0  0  0  0  0  0  0
   11.8047   -2.8391    0.0000 H   0  0  0  0  0  0  0  0  0  0  0  0
   11.8556   -6.3421    0.0000 H   0  0  0  0  0  0  0  0  0  0  0  0
   12.4682   -6.0612    0.0000 H   0  0  0  0  0  0  0  0  0  0  0  0
   12.8540   -5.3623    0.0000 H   0  0  0  0  0  0  0  0  0  0  0  0
    9.3684   -4.8880    0.0000 H   0  0  0  0  0  0  0  0  0  0  0  0
    8.7508   -5.5104    0.0000 H   0  0  0  0  0  0  0  0  0  0  0  0
    9.3732   -6.1280    0.0000 H   0  0  0  0  0  0  0  0  0  0  0  0
   13.8786    2.0066    0.0000 H   0  0  0  0  0  0  0  0  0  0  0  0
   13.1209    1.7590    0.0000 H   0  0  0  0  0  0  0  0  0  0  0  0
   12.8760   -0.7250    0.0000 H   0  0  0  0  0  0  0  0  0  0  0  0
   13.8968   -0.3913    0.0000 H   0  0  0  0  0  0  0  0  0  0  0  0
    8.5662   -6.9141    0.0000 H   0  0  0  0  0  0  0  0  0  0  0  0
    8.5991    2.0992    0.0000 H   0  0  0  0  0  0  0  0  0  0  0  0
   15.0399    1.6866    0.0000 H   0  0  0  0  0  0  0  0  0  0  0  0
    8.5991    4.3392    0.0000 H   0  0  0  0  0  0  0  0  0  0  0  0
   11.5895   -8.5364    0.0000 H   0  0  0  0  0  0  0  0  0  0  0  0
   12.2166   -9.1492    0.0000 H   0  0  0  0  0  0  0  0  0  0  0  0
   12.8294   -8.5220    0.0000 H   0  0  0  0  0  0  0  0  0  0  0  0
    8.2700    4.5292    0.0000 H   0  0  0  0  0  0  0  0  0  0  0  0
    6.8671    2.0992    0.0000 H   0  0  0  0  0  0  0  0  0  0  0  0
    6.8671    4.3392    0.0000 H   0  0  0  0  0  0  0  0  0  0  0  0
   10.0021    3.9092    0.0000 H   0  0  0  0  0  0  0  0  0  0  0  0
    5.7890    2.8018    0.0000 H   0  0  0  0  0  0  0  0  0  0  0  0
    5.3905    2.1115    0.0000 H   0  0  0  0  0  0  0  0  0  0  0  0
    8.2700    5.5292    0.0000 H   0  0  0  0  0  0  0  0  0  0  0  0
    5.4641    4.9092    0.0000 H   0  0  0  0  0  0  0  0  0  0  0  0
    4.5981    6.0292    0.0000 H   0  0  0  0  0  0  0  0  0  0  0  0
    5.1350    1.3392    0.0000 H   0  0  0  0  0  0  0  0  0  0  0  0
    5.1350    7.3392    0.0000 H   0  0  0  0  0  0  0  0  0  0  0  0
    7.4040    6.4092    0.0000 H   0  0  0  0  0  0  0  0  0  0  0  0
    5.1350   -0.9008    0.0000 H   0  0  0  0  0  0  0  0  0  0  0  0
    6.5380    7.5292    0.0000 H   0  0  0  0  0  0  0  0  0  0  0  0
    3.7320    5.5292    0.0000 H   0  0  0  0  0  0  0  0  0  0  0  0
    3.7320   -1.0908    0.0000 H   0  0  0  0  0  0  0  0  0  0  0  0
    3.4030    1.3392    0.0000 H   0  0  0  0  0  0  0  0  0  0  0  0
    3.4030   -0.9008    0.0000 H   0  0  0  0  0  0  0  0  0  0  0  0
    8.0431    6.6823    0.0000 H   0  0  0  0  0  0  0  0  0  0  0  0
    8.2700    7.5292    0.0000 H   0  0  0  0  0  0  0  0  0  0  0  0
    7.4231    7.7562    0.0000 H   0  0  0  0  0  0  0  0  0  0  0  0
    4.2690    7.8392    0.0000 H   0  0  0  0  0  0  0  0  0  0  0  0
    6.5380   -0.4708    0.0000 H   0  0  0  0  0  0  0  0  0  0  0  0
    6.5380    8.5292    0.0000 H   0  0  0  0  0  0  0  0  0  0  0  0
    1.9264    1.3269    0.0000 H   0  0  0  0  0  0  0  0  0  0  0  0
    2.3249    0.6366    0.0000 H   0  0  0  0  0  0  0  0  0  0  0  0
    3.7320   -2.0908    0.0000 H   0  0  0  0  0  0  0  0  0  0  0  0
    2.0000   -0.4708    0.0000 H   0  0  0  0  0  0  0  0  0  0  0  0
    2.0000    2.5292    0.0000 H   0  0  0  0  0  0  0  0  0  0  0  0
 44  1  1  1  0  0  0
  1 53  1  0  0  0  0
  2 46  1  0  0  0  0
 52  2  1  6  0  0  0
  3 46  2  0  0  0  0
  4 49  1  0  0  0  0
  4114  1  0  0  0  0
  5 49  2  0  0  0  0
  6 50  1  0  0  0  0
  6116  1  0  0  0  0
  7 52  1  0  0  0  0
  7 57  1  0  0  0  0
  8 53  2  0  0  0  0
 54  9  1  1  0  0  0
  9124  1  0  0  0  0
 56 10  1  6  0  0  0
 10127  1  0  0  0  0
 58 11  1  1  0  0  0
 60 11  1  1  0  0  0
 12 59  1  0  0  0  0
 62 12  1  1  0  0  0
 13 60  1  0  0  0  0
 13 64  1  0  0  0  0
 14 62  1  0  0  0  0
 14 68  1  0  0  0  0
 61 15  1  6  0  0  0
 15135  1  0  0  0  0
 63 16  1  6  0  0  0
 16142  1  0  0  0  0
 65 17  1  6  0  0  0
 17143  1  0  0  0  0
 66 18  1  1  0  0  0
 18144  1  0  0  0  0
 67 19  1  1  0  0  0
 19147  1  0  0  0  0
 69 20  1  6  0  0  0
 20148  1  0  0  0  0
 21 71  1  0  0  0  0
 21149  1  0  0  0  0
 22 23  1  0  0  0  0
 22 24  1  0  0  0  0
 22 30  1  0  0  0  0
 22 39  1  6  0  0  0
 23 25  1  0  0  0  0
 23 31  1  0  0  0  0
 23 40  1  1  0  0  0
 24 26  1  0  0  0  0
 24 32  1  0  0  0  0
 24 72  1  1  0  0  0
 25 27  1  0  0  0  0
 25 33  1  0  0  0  0
 25 73  1  6  0  0  0
 26 28  1  0  0  0  0
 26 38  1  0  0  0  0
 26 43  1  6  0  0  0
 27 29  1  0  0  0  0
 27 36  1  0  0  0  0
 27 74  1  1  0  0  0
 28 34  1  0  0  0  0
 28 37  1  0  0  0  0
 28 75  1  1  0  0  0
 29 35  1  0  0  0  0
 29 41  1  0  0  0  0
 29 46  1  6  0  0  0
 30 34  1  0  0  0  0
 30 76  1  0  0  0  0
 30 77  1  0  0  0  0
 31 35  1  0  0  0  0
 31 78  1  0  0  0  0
 31 79  1  0  0  0  0
 32 33  1  0  0  0  0
 32 80  1  0  0  0  0
 32 81  1  0  0  0  0
 33 82  1  0  0  0  0
 33 83  1  0  0  0  0
 34 84  1  0  0  0  0
 34 85  1  0  0  0  0
 35 86  1  0  0  0  0
 35 87  1  0  0  0  0
 36 42  1  0  0  0  0
 36 47  1  1  0  0  0
 36 88  1  0  0  0  0
 37 44  1  0  0  0  0
 37 48  1  6  0  0  0
 37 49  1  0  0  0  0
 38 45  1  0  0  0  0
 38 89  1  0  0  0  0
 38 90  1  0  0  0  0
 39 91  1  0  0  0  0
 39 92  1  0  0  0  0
 39 93  1  0  0  0  0
 40 94  1  0  0  0  0
 40 95  1  0  0  0  0
 40 96  1  0  0  0  0
 41 42  1  0  0  0  0
 41 97  1  0  0  0  0
 41 98  1  0  0  0  0
 42 99  1  0  0  0  0
 42100  1  0  0  0  0
 43101  1  0  0  0  0
 43102  1  0  0  0  0
 43103  1  0  0  0  0
 44 45  1  0  0  0  0
 44104  1  0  0  0  0
 45105  1  0  0  0  0
 45106  1  0  0  0  0
 47 50  1  0  0  0  0
 47 51  2  0  0  0  0
 48107  1  0  0  0  0
 48108  1  0  0  0  0
 48109  1  0  0  0  0
 50110  1  0  0  0  0
 50111  1  0  0  0  0
 51112  1  0  0  0  0
 51113  1  0  0  0  0
 52 54  1  0  0  0  0
 52115  1  0  0  0  0
 53 55  1  0  0  0  0
 54 56  1  0  0  0  0
 54117  1  0  0  0  0
 55118  1  0  0  0  0
 55119  1  0  0  0  0
 55120  1  0  0  0  0
 56 58  1  0  0  0  0
 56121  1  0  0  0  0
 57 58  1  0  0  0  0
 57 59  1  6  0  0  0
 57122  1  0  0  0  0
 58123  1  0  0  0  0
 59125  1  0  0  0  0
 59126  1  0  0  0  0
 60 61  1  0  0  0  0
 60128  1  0  0  0  0
 61 63  1  0  0  0  0
 61129  1  0  0  0  0
 62 65  1  0  0  0  0
 62130  1  0  0  0  0
 63 66  1  0  0  0  0
 63131  1  0  0  0  0
 64 66  1  0  0  0  0
 64 70  1  6  0  0  0
 64132  1  0  0  0  0
 65 67  1  0  0  0  0
 65133  1  0  0  0  0
 66134  1  0  0  0  0
 67 69  1  0  0  0  0
 67136  1  0  0  0  0
 68 69  1  0  0  0  0
 68 71  1  1  0  0  0
 68137  1  0  0  0  0
 69138  1  0  0  0  0
 70139  1  0  0  0  0
 70140  1  0  0  0  0
 70141  1  0  0  0  0
 71145  1  0  0  0  0
 71146  1  0  0  0  0
M  END
> <PUBCHEM_COMPOUND_CID>
101263324

> <PUBCHEM_COMPOUND_CANONICALIZED>
1

> <PUBCHEM_CACTVS_COMPLEXITY>
1990

> <PUBCHEM_CACTVS_HBOND_ACCEPTOR>
21

> <PUBCHEM_CACTVS_HBOND_DONOR>
11

> <PUBCHEM_CACTVS_ROTATABLE_BOND>
14

> <PUBCHEM_CACTVS_SUBSKEYS>
AAADcfB8PgAAAAAAAAAAAAAAAAAAAYAAAAA0aNGCAAAAAGDAAAAAGgAACAAADxSwgAMCCAAABgCIAgDSCAAAAAAgAAAAAAEAAAgRFBYAAQAiQAAFoAAHEAHI6PyPgAAAAAAAAADAAAYAADAAAQAACAAAAA==

> <PUBCHEM_IUPAC_OPENEYE_NAME>
(1R,3aS,5aR,5bR,7aR,8S,9R,11aR,11bR,13aR,13bS)-9-acetoxy-3a-[(2S,3R,4R,5S,6R)-3,4-dihydroxy-6-[[(2R,3R,4S,5S,6R)-3,4,5-trihydroxy-6-(hydroxymethyl)tetrahydropyran-2-yl]oxymethyl]-5-[(2S,3R,4R,5R,6S)-3,4,5-trihydroxy-6-methyl-tetrahydropyran-2-yl]oxy-tetrahydropyran-2-yl]oxycarbonyl-1-[1-(hydroxymethyl)vinyl]-5a,5b,8,11a-tetramethyl-1,2,3,4,5,6,7,7a,9,10,11,11b,12,13,13a,13b-hexadecahydrocyclopenta[a]chrysene-8-carboxylic acid

> <PUBCHEM_IUPAC_CAS_NAME>
(1R,3aS,5aR,5bR,7aR,8S,9R,11aR,11bR,13aR,13bS)-9-acetyloxy-3a-[[(2S,3R,4R,5S,6R)-3,4-dihydroxy-6-[[(2R,3R,4S,5S,6R)-3,4,5-trihydroxy-6-(hydroxymethyl)-2-oxanyl]oxymethyl]-5-[[(2S,3R,4R,5R,6S)-3,4,5-trihydroxy-6-methyl-2-oxanyl]oxy]-2-oxanyl]oxy-oxomethyl]-1-(3-hydroxyprop-1-en-2-yl)-5a,5b,8,11a-tetramethyl-1,2,3,4,5,6,7,7a,9,10,11,11b,12,13,13a,13b-hexadecahydrocyclopenta[a]chrysene-8-carboxylic acid

> <PUBCHEM_IUPAC_NAME_MARKUP>
(1<I>R</I>,3<I>a</I><I>S</I>,5<I>a</I><I>R</I>,5<I>b</I><I>R</I>,7<I>a</I><I>R</I>,8<I>S</I>,9<I>R</I>,11<I>a</I><I>R</I>,11<I>b</I><I>R</I>,13<I>a</I><I>R</I>,13<I>b</I><I>S</I>)-9-acetyloxy-3<I>a</I>-[(2<I>S</I>,3<I>R</I>,4<I>R</I>,5<I>S</I>,6<I>R</I>)-3,4-dihydroxy-6-[[(2<I>R</I>,3<I>R</I>,4<I>S</I>,5<I>S</I>,6<I>R</I>)-3,4,5-trihydroxy-6-(hydroxymethyl)oxan-2-yl]oxymethyl]-5-[(2<I>S</I>,3<I>R</I>,4<I>R</I>,5<I>R</I>,6<I>S</I>)-3,4,5-trihydroxy-6-methyloxan-2-yl]oxyoxan-2-yl]oxycarbonyl-1-(3-hydroxyprop-1-en-2-yl)-5<I>a</I>,5<I>b</I>,8,11<I>a</I>-tetramethyl-1,2,3,4,5,6,7,7<I>a</I>,9,10,11,11<I>b</I>,12,13,13<I>a</I>,13<I>b</I>-hexadecahydrocyclopenta[a]chrysene-8-carboxylic acid

> <PUBCHEM_IUPAC_NAME>
(1R,3aS,5aR,5bR,7aR,8S,9R,11aR,11bR,13aR,13bS)-9-acetyloxy-3a-[(2S,3R,4R,5S,6R)-3,4-dihydroxy-6-[[(2R,3R,4S,5S,6R)-3,4,5-trihydroxy-6-(hydroxymethyl)oxan-2-yl]oxymethyl]-5-[(2S,3R,4R,5R,6S)-3,4,5-trihydroxy-6-methyloxan-2-yl]oxyoxan-2-yl]oxycarbonyl-1-(3-hydroxyprop-1-en-2-yl)-5a,5b,8,11a-tetramethyl-1,2,3,4,5,6,7,7a,9,10,11,11b,12,13,13a,13b-hexadecahydrocyclopenta[a]chrysene-8-carboxylic acid

> <PUBCHEM_IUPAC_SYSTEMATIC_NAME>
(1R,3aS,5aR,5bR,7aR,8S,9R,11aR,11bR,13aR,13bS)-9-acetyloxy-3a-[(2S,3R,4R,5S,6R)-6-[[(2R,3R,4S,5S,6R)-6-(hydroxymethyl)-3,4,5-tris(oxidanyl)oxan-2-yl]oxymethyl]-5-[(2S,3R,4R,5R,6S)-6-methyl-3,4,5-tris(oxidanyl)oxan-2-yl]oxy-3,4-bis(oxidanyl)oxan-2-yl]oxycarbonyl-5a,5b,8,11a-tetramethyl-1-(3-oxidanylprop-1-en-2-yl)-1,2,3,4,5,6,7,7a,9,10,11,11b,12,13,13a,13b-hexadecahydrocyclopenta[a]chrysene-8-carboxylic acid

> <PUBCHEM_IUPAC_TRADITIONAL_NAME>
(1R,3aS,5aR,5bR,7aR,8S,9R,11aR,11bR,13aR,13bS)-9-acetoxy-3a-[(2S,3R,4R,5S,6R)-3,4-dihydroxy-6-[[(2R,3R,4S,5S,6R)-3,4,5-trihydroxy-6-methylol-tetrahydropyran-2-yl]oxymethyl]-5-[(2S,3R,4R,5R,6S)-3,4,5-trihydroxy-6-methyl-tetrahydropyran-2-yl]oxy-tetrahydropyran-2-yl]oxycarbonyl-5a,5b,8,11a-tetramethyl-1-(1-methylolvinyl)-1,2,3,4,5,6,7,7a,9,10,11,11b,12,13,13a,13b-hexadecahydrocyclopenta[a]chrysene-8-carboxylic acid

> <PUBCHEM_IUPAC_INCHI>
InChI=1S/C50H78O21/c1-21(18-51)24-10-15-50(17-16-47(5)25(31(24)50)8-9-28-46(4)13-12-30(67-23(3)53)49(7,44(62)63)29(46)11-14-48(28,47)6)45(64)71-43-39(61)36(58)40(70-42-38(60)34(56)32(54)22(2)66-42)27(69-43)20-65-41-37(59)35(57)33(55)26(19-52)68-41/h22,24-43,51-52,54-61H,1,8-20H2,2-7H3,(H,62,63)/t22-,24-,25+,26+,27+,28+,29+,30+,31+,32-,33+,34+,35-,36+,37+,38+,39+,40+,41+,42-,43-,46+,47+,48+,49-,50-/m0/s1

> <PUBCHEM_IUPAC_INCHIKEY>
ZIGWPESMYAFPTJ-ZYYUPPQOSA-N

> <PUBCHEM_XLOGP3_AA>
1.2

> <PUBCHEM_EXACT_MASS>
1014.50356

> <PUBCHEM_MOLECULAR_FORMULA>
C50H78O21

> <PUBCHEM_MOLECULAR_WEIGHT>
1015.1

> <PUBCHEM_OPENEYE_CAN_SMILES>
CC1C(C(C(C(O1)OC2C(OC(C(C2O)O)OC(=O)C34CCC(C3C5CCC6C7(CCC(C(C7CCC6(C5(CC4)C)C)(C)C(=O)O)OC(=O)C)C)C(=C)CO)COC8C(C(C(C(O8)CO)O)O)O)O)O)O

> <PUBCHEM_OPENEYE_ISO_SMILES>
C[C@H]1[C@@H]([C@H]([C@H]([C@@H](O1)O[C@@H]2[C@H](O[C@H]([C@@H]([C@H]2O)O)OC(=O)[C@]34CC[C@H]([C@@H]3[C@H]5CC[C@@H]6[C@]7(CC[C@H]([C@@]([C@@H]7CC[C@]6([C@@]5(CC4)C)C)(C)C(=O)O)OC(=O)C)C)C(=C)CO)CO[C@H]8[C@@H]([C@H]([C@@H]([C@H](O8)CO)O)O)O)O)O)O

> <PUBCHEM_CACTVS_TPSA>
338

> <PUBCHEM_MONOISOTOPIC_WEIGHT>
1014.50356

> <PUBCHEM_TOTAL_CHARGE>
0

> <PUBCHEM_HEAVY_ATOM_COUNT>
71

> <PUBCHEM_ATOM_DEF_STEREO_COUNT>
26

> <PUBCHEM_ATOM_UDEF_STEREO_COUNT>
0

> <PUBCHEM_BOND_DEF_STEREO_COUNT>
0

> <PUBCHEM_BOND_UDEF_STEREO_COUNT>
0

> <PUBCHEM_ISOTOPIC_ATOM_COUNT>
0

> <PUBCHEM_COMPONENT_COUNT>
1

> <PUBCHEM_CACTVS_TAUTO_COUNT>
-1

> <PUBCHEM_COORDINATE_TYPE>
1
5
255

> <PUBCHEM_BONDANNOTATIONS>
44  1  5
56  10  6
58  11  5
60  11  5
62  12  5
61  15  6
63  16  6
65  17  6
66  18  5
67  19  5
52  2  6
69  20  6
22  39  6
23  40  5
24  72  5
25  73  6
26  43  6
27  74  5
28  75  5
29  46  6
36  47  5
37  48  6
57  59  6
64  70  6
68  71  5
54  9  5

$$$$
