52949153
  -OEChem-09052004202D

144151  0     1  0  0  0  0  0999 V2000
   19.0556   -0.3307    0.0000 O   0  0  0  0  0  0  0  0  0  0  0  0
   21.8779    3.1999    0.0000 O   0  0  0  0  0  0  0  0  0  0  0  0
   12.9292    0.1823    0.0000 O   0  0  0  0  0  0  0  0  0  0  0  0
   13.7953    1.6823    0.0000 O   0  0  0  0  0  0  0  0  0  0  0  0
   11.1972    0.1823    0.0000 O   0  0  0  0  0  0  0  0  0  0  0  0
   12.9292    2.1823    0.0000 O   0  0  0  0  0  0  0  0  0  0  0  0
   11.1972    3.1823    0.0000 O   0  0  0  0  0  0  0  0  0  0  0  0
    9.4651    2.1823    0.0000 O   0  0  0  0  0  0  0  0  0  0  0  0
    9.4651   -0.8177    0.0000 O   0  0  0  0  0  0  0  0  0  0  0  0
    7.7331   -0.8177    0.0000 O   0  0  0  0  0  0  0  0  0  0  0  0
    9.4651   -2.8177    0.0000 O   0  0  0  0  0  0  0  0  0  0  0  0
    7.7331   -3.8177    0.0000 O   0  0  0  0  0  0  0  0  0  0  0  0
    6.0010   -2.8177    0.0000 O   0  0  0  0  0  0  0  0  0  0  0  0
    6.0010    0.1823    0.0000 O   0  0  0  0  0  0  0  0  0  0  0  0
    5.1350   -1.3177    0.0000 O   0  0  0  0  0  0  0  0  0  0  0  0
    4.2690   -3.8177    0.0000 O   0  0  0  0  0  0  0  0  0  0  0  0
    2.5369   -2.8177    0.0000 O   0  0  0  0  0  0  0  0  0  0  0  0
    2.5369   -0.8177    0.0000 O   0  0  0  0  0  0  0  0  0  0  0  0
   17.3390    1.6826    0.0000 C   0  0  1  0  0  0  0  0  0  0  0  0
   16.4691    1.1892    0.0000 C   0  0  1  0  0  0  0  0  0  0  0  0
   18.2011    1.1759    0.0000 C   0  0  1  0  0  0  0  0  0  0  0  0
   16.4614    0.1893    0.0000 C   0  0  1  0  0  0  0  0  0  0  0  0
   19.1150    1.6757    0.0000 C   0  0  2  0  0  0  0  0  0  0  0  0
   15.5634   -0.3385    0.0000 C   0  0  3  0  0  0  0  0  0  0  0  0
   19.1311    2.7172    0.0000 C   0  0  1  0  0  0  0  0  0  0  0  0
   14.6613    0.1823    0.0000 C   0  0  1  0  0  0  0  0  0  0  0  0
   18.1934    0.1759    0.0000 C   0  0  1  0  0  0  0  0  0  0  0  0
   17.3309    2.7242    0.0000 C   0  0  0  0  0  0  0  0  0  0  0  0
   17.3236   -0.3174    0.0000 C   0  0  0  0  0  0  0  0  0  0  0  0
   15.5793    1.7308    0.0000 C   0  0  0  0  0  0  0  0  0  0  0  0
   18.2330    3.2450    0.0000 C   0  0  0  0  0  0  0  0  0  0  0  0
   14.6693    1.2239    0.0000 C   0  0  0  0  0  0  0  0  0  0  0  0
   20.0707    3.2597    0.0000 C   0  0  0  0  0  0  0  0  0  0  0  0
   15.3455   -1.3507    0.0000 C   0  0  1  0  0  0  0  0  0  0  0  0
   20.0375    1.1045    0.0000 C   0  0  0  0  0  0  0  0  0  0  0  0
   16.7021    2.4535    0.0000 C   0  0  0  0  0  0  0  0  0  0  0  0
   16.1343    2.1316    0.0000 C   0  0  0  0  0  0  0  0  0  0  0  0
   13.8936   -0.5125    0.0000 C   0  0  0  0  0  0  0  0  0  0  0  0
   14.3156   -1.4581    0.0000 C   0  0  0  0  0  0  0  0  0  0  0  0
   19.0996    0.6758    0.0000 C   0  0  0  0  0  0  0  0  0  0  0  0
   21.0061    2.7100    0.0000 C   0  0  1  0  0  0  0  0  0  0  0  0
   20.9894    1.6251    0.0000 C   0  0  0  0  0  0  0  0  0  0  0  0
   13.7953    0.6823    0.0000 C   0  0  0  0  0  0  0  0  0  0  0  0
   20.5740    4.1238    0.0000 C   0  0  0  0  0  0  0  0  0  0  0  0
   19.5740    4.1277    0.0000 C   0  0  0  0  0  0  0  0  0  0  0  0
   16.0133   -2.0950    0.0000 C   0  0  0  0  0  0  0  0  0  0  0  0
   15.7026   -3.0456    0.0000 C   0  0  0  0  0  0  0  0  0  0  0  0
   16.9918   -1.8888    0.0000 C   0  0  0  0  0  0  0  0  0  0  0  0
   12.0632    0.6823    0.0000 C   0  0  2  0  0  0  0  0  0  0  0  0
   12.0632    1.6823    0.0000 C   0  0  1  0  0  0  0  0  0  0  0  0
   11.1972    2.1823    0.0000 C   0  0  2  0  0  0  0  0  0  0  0  0
   10.3312    0.6823    0.0000 C   0  0  1  0  0  0  0  0  0  0  0  0
   10.3312    1.6823    0.0000 C   0  0  1  0  0  0  0  0  0  0  0  0
    9.4651    0.1823    0.0000 C   0  0  0  0  0  0  0  0  0  0  0  0
    8.5991   -1.3177    0.0000 C   0  0  2  0  0  0  0  0  0  0  0  0
    8.5991   -2.3177    0.0000 C   0  0  1  0  0  0  0  0  0  0  0  0
    7.7331   -2.8177    0.0000 C   0  0  2  0  0  0  0  0  0  0  0  0
    6.8671   -1.3177    0.0000 C   0  0  1  0  0  0  0  0  0  0  0  0
    6.8671   -2.3177    0.0000 C   0  0  1  0  0  0  0  0  0  0  0  0
    6.0010   -0.8177    0.0000 C   0  0  0  0  0  0  0  0  0  0  0  0
    5.1350   -2.3177    0.0000 C   0  0  1  0  0  0  0  0  0  0  0  0
    4.2690   -2.8177    0.0000 C   0  0  1  0  0  0  0  0  0  0  0  0
    3.4030   -2.3177    0.0000 C   0  0  1  0  0  0  0  0  0  0  0  0
    4.2690   -0.8177    0.0000 C   0  0  2  0  0  0  0  0  0  0  0  0
    3.4030   -1.3177    0.0000 C   0  0  2  0  0  0  0  0  0  0  0  0
    4.2690    0.1823    0.0000 C   0  0  0  0  0  0  0  0  0  0  0  0
   18.9306    0.7396    0.0000 H   0  0  0  0  0  0  0  0  0  0  0  0
   16.4614   -0.6607    0.0000 H   0  0  0  0  0  0  0  0  0  0  0  0
   16.0659   -0.7016    0.0000 H   0  0  0  0  0  0  0  0  0  0  0  0
   19.1343    3.5672    0.0000 H   0  0  0  0  0  0  0  0  0  0  0  0
   18.7327    0.4818    0.0000 H   0  0  0  0  0  0  0  0  0  0  0  0
   17.1174    3.3062    0.0000 H   0  0  0  0  0  0  0  0  0  0  0  0
   16.7209    2.6134    0.0000 H   0  0  0  0  0  0  0  0  0  0  0  0
   16.9214   -0.7892    0.0000 H   0  0  0  0  0  0  0  0  0  0  0  0
   17.7184   -0.7954    0.0000 H   0  0  0  0  0  0  0  0  0  0  0  0
   15.9875    2.1974    0.0000 H   0  0  0  0  0  0  0  0  0  0  0  0
   15.1894    2.2128    0.0000 H   0  0  0  0  0  0  0  0  0  0  0  0
   18.6340    3.7179    0.0000 H   0  0  0  0  0  0  0  0  0  0  0  0
   17.8357    3.7209    0.0000 H   0  0  0  0  0  0  0  0  0  0  0  0
   14.4648    1.8092    0.0000 H   0  0  0  0  0  0  0  0  0  0  0  0
   14.0577    1.1226    0.0000 H   0  0  0  0  0  0  0  0  0  0  0  0
   15.9447   -1.1916    0.0000 H   0  0  0  0  0  0  0  0  0  0  0  0
   19.6257    0.6410    0.0000 H   0  0  0  0  0  0  0  0  0  0  0  0
   20.4237    0.6195    0.0000 H   0  0  0  0  0  0  0  0  0  0  0  0
   17.1801    2.8484    0.0000 H   0  0  0  0  0  0  0  0  0  0  0  0
   16.3073    2.9315    0.0000 H   0  0  0  0  0  0  0  0  0  0  0  0
   16.2241    2.0587    0.0000 H   0  0  0  0  0  0  0  0  0  0  0  0
   16.7186    2.3391    0.0000 H   0  0  0  0  0  0  0  0  0  0  0  0
   15.9268    2.7158    0.0000 H   0  0  0  0  0  0  0  0  0  0  0  0
   15.5501    1.9240    0.0000 H   0  0  0  0  0  0  0  0  0  0  0  0
   13.5282   -0.0117    0.0000 H   0  0  0  0  0  0  0  0  0  0  0  0
   13.3571   -0.8233    0.0000 H   0  0  0  0  0  0  0  0  0  0  0  0
   13.7260   -1.6499    0.0000 H   0  0  0  0  0  0  0  0  0  0  0  0
   14.4443   -2.0646    0.0000 H   0  0  0  0  0  0  0  0  0  0  0  0
   18.4797    0.6854    0.0000 H   0  0  0  0  0  0  0  0  0  0  0  0
   19.0900    0.0559    0.0000 H   0  0  0  0  0  0  0  0  0  0  0  0
   19.7195    0.6663    0.0000 H   0  0  0  0  0  0  0  0  0  0  0  0
   21.5388    2.3928    0.0000 H   0  0  0  0  0  0  0  0  0  0  0  0
   21.1894    1.0383    0.0000 H   0  0  0  0  0  0  0  0  0  0  0  0
   21.6018    1.7218    0.0000 H   0  0  0  0  0  0  0  0  0  0  0  0
   21.1098    3.8117    0.0000 H   0  0  0  0  0  0  0  0  0  0  0  0
   20.8861    4.6595    0.0000 H   0  0  0  0  0  0  0  0  0  0  0  0
   20.0383    4.4359    0.0000 H   0  0  0  0  0  0  0  0  0  0  0  0
   20.1122    4.4356    0.0000 H   0  0  0  0  0  0  0  0  0  0  0  0
   19.2661    4.6658    0.0000 H   0  0  0  0  0  0  0  0  0  0  0  0
   19.0359    3.8197    0.0000 H   0  0  0  0  0  0  0  0  0  0  0  0
   19.0508   -0.9507    0.0000 H   0  0  0  0  0  0  0  0  0  0  0  0
   22.4112    2.8838    0.0000 H   0  0  0  0  0  0  0  0  0  0  0  0
   15.1133   -2.8530    0.0000 H   0  0  0  0  0  0  0  0  0  0  0  0
   15.5100   -3.6349    0.0000 H   0  0  0  0  0  0  0  0  0  0  0  0
   16.2920   -3.2382    0.0000 H   0  0  0  0  0  0  0  0  0  0  0  0
   17.4059   -2.3503    0.0000 H   0  0  0  0  0  0  0  0  0  0  0  0
   17.1844   -1.2995    0.0000 H   0  0  0  0  0  0  0  0  0  0  0  0
   12.6002    0.9923    0.0000 H   0  0  0  0  0  0  0  0  0  0  0  0
   12.0632    2.3023    0.0000 H   0  0  0  0  0  0  0  0  0  0  0  0
   10.6603    2.4923    0.0000 H   0  0  0  0  0  0  0  0  0  0  0  0
   10.3312    0.0623    0.0000 H   0  0  0  0  0  0  0  0  0  0  0  0
   10.3312    2.3023    0.0000 H   0  0  0  0  0  0  0  0  0  0  0  0
   12.9292    2.8023    0.0000 H   0  0  0  0  0  0  0  0  0  0  0  0
    9.2531    0.7649    0.0000 H   0  0  0  0  0  0  0  0  0  0  0  0
    8.8546    0.0747    0.0000 H   0  0  0  0  0  0  0  0  0  0  0  0
   11.7341    3.4923    0.0000 H   0  0  0  0  0  0  0  0  0  0  0  0
    9.4651    2.8023    0.0000 H   0  0  0  0  0  0  0  0  0  0  0  0
    8.5991   -0.6977    0.0000 H   0  0  0  0  0  0  0  0  0  0  0  0
    8.5991   -2.9377    0.0000 H   0  0  0  0  0  0  0  0  0  0  0  0
    7.1962   -3.1277    0.0000 H   0  0  0  0  0  0  0  0  0  0  0  0
    6.8671   -0.6977    0.0000 H   0  0  0  0  0  0  0  0  0  0  0  0
    6.3301   -2.0077    0.0000 H   0  0  0  0  0  0  0  0  0  0  0  0
   10.0021   -2.5077    0.0000 H   0  0  0  0  0  0  0  0  0  0  0  0
    5.3905   -0.7100    0.0000 H   0  0  0  0  0  0  0  0  0  0  0  0
    5.7890   -1.4003    0.0000 H   0  0  0  0  0  0  0  0  0  0  0  0
    8.2700   -4.1277    0.0000 H   0  0  0  0  0  0  0  0  0  0  0  0
    5.1350   -2.9377    0.0000 H   0  0  0  0  0  0  0  0  0  0  0  0
    6.5380    0.4923    0.0000 H   0  0  0  0  0  0  0  0  0  0  0  0
    3.7320   -3.1277    0.0000 H   0  0  0  0  0  0  0  0  0  0  0  0
    2.8660   -2.0077    0.0000 H   0  0  0  0  0  0  0  0  0  0  0  0
    4.8059   -0.5077    0.0000 H   0  0  0  0  0  0  0  0  0  0  0  0
    3.4030   -0.6977    0.0000 H   0  0  0  0  0  0  0  0  0  0  0  0
    3.7320   -4.1277    0.0000 H   0  0  0  0  0  0  0  0  0  0  0  0
    4.8890    0.1823    0.0000 H   0  0  0  0  0  0  0  0  0  0  0  0
    4.2690    0.8023    0.0000 H   0  0  0  0  0  0  0  0  0  0  0  0
    3.6490    0.1823    0.0000 H   0  0  0  0  0  0  0  0  0  0  0  0
    2.0000   -2.5077    0.0000 H   0  0  0  0  0  0  0  0  0  0  0  0
    2.5369   -0.1977    0.0000 H   0  0  0  0  0  0  0  0  0  0  0  0
 27  1  1  6  0  0  0
  1107  1  0  0  0  0
 41  2  1  6  0  0  0
  2108  1  0  0  0  0
  3 43  1  0  0  0  0
 49  3  1  6  0  0  0
  4 43  2  0  0  0  0
  5 49  1  0  0  0  0
  5 52  1  0  0  0  0
 50  6  1  1  0  0  0
  6119  1  0  0  0  0
 51  7  1  6  0  0  0
  7122  1  0  0  0  0
 53  8  1  1  0  0  0
  8123  1  0  0  0  0
  9 54  1  0  0  0  0
 55  9  1  1  0  0  0
 10 55  1  0  0  0  0
 10 58  1  0  0  0  0
 56 11  1  6  0  0  0
 11129  1  0  0  0  0
 57 12  1  1  0  0  0
 12132  1  0  0  0  0
 59 13  1  6  0  0  0
 61 13  1  6  0  0  0
 14 60  1  0  0  0  0
 14134  1  0  0  0  0
 15 61  1  0  0  0  0
 15 64  1  0  0  0  0
 62 16  1  6  0  0  0
 16139  1  0  0  0  0
 63 17  1  6  0  0  0
 17143  1  0  0  0  0
 65 18  1  1  0  0  0
 18144  1  0  0  0  0
 19 20  1  0  0  0  0
 19 21  1  0  0  0  0
 19 28  1  0  0  0  0
 19 36  1  1  0  0  0
 20 22  1  0  0  0  0
 20 30  1  0  0  0  0
 20 37  1  6  0  0  0
 21 23  1  0  0  0  0
 21 27  1  0  0  0  0
 21 67  1  6  0  0  0
 22 24  1  0  0  0  0
 22 29  1  0  0  0  0
 22 68  1  1  0  0  0
 23 25  1  0  0  0  0
 23 35  1  0  0  0  0
 23 40  1  1  0  0  0
 24 26  1  0  0  0  0
 24 34  1  0  0  0  0
 24 69  1  0  0  0  0
 25 31  1  0  0  0  0
 25 33  1  0  0  0  0
 25 70  1  6  0  0  0
 26 32  1  0  0  0  0
 26 38  1  0  0  0  0
 26 43  1  1  0  0  0
 27 29  1  0  0  0  0
 27 71  1  0  0  0  0
 28 31  1  0  0  0  0
 28 72  1  0  0  0  0
 28 73  1  0  0  0  0
 29 74  1  0  0  0  0
 29 75  1  0  0  0  0
 30 32  1  0  0  0  0
 30 76  1  0  0  0  0
 30 77  1  0  0  0  0
 31 78  1  0  0  0  0
 31 79  1  0  0  0  0
 32 80  1  0  0  0  0
 32 81  1  0  0  0  0
 33 41  1  0  0  0  0
 33 44  1  0  0  0  0
 33 45  1  0  0  0  0
 34 39  1  0  0  0  0
 34 46  1  0  0  0  0
 34 82  1  0  0  0  0
 35 42  1  0  0  0  0
 35 83  1  0  0  0  0
 35 84  1  0  0  0  0
 36 85  1  0  0  0  0
 36 86  1  0  0  0  0
 36 87  1  0  0  0  0
 37 88  1  0  0  0  0
 37 89  1  0  0  0  0
 37 90  1  0  0  0  0
 38 39  1  0  0  0  0
 38 91  1  0  0  0  0
 38 92  1  0  0  0  0
 39 93  1  0  0  0  0
 39 94  1  0  0  0  0
 40 95  1  0  0  0  0
 40 96  1  0  0  0  0
 40 97  1  0  0  0  0
 41 42  1  0  0  0  0
 41 98  1  0  0  0  0
 42 99  1  0  0  0  0
 42100  1  0  0  0  0
 44101  1  0  0  0  0
 44102  1  0  0  0  0
 44103  1  0  0  0  0
 45104  1  0  0  0  0
 45105  1  0  0  0  0
 45106  1  0  0  0  0
 46 47  1  0  0  0  0
 46 48  2  0  0  0  0
 47109  1  0  0  0  0
 47110  1  0  0  0  0
 47111  1  0  0  0  0
 48112  1  0  0  0  0
 48113  1  0  0  0  0
 49 50  1  0  0  0  0
 49114  1  0  0  0  0
 50 51  1  0  0  0  0
 50115  1  0  0  0  0
 51 53  1  0  0  0  0
 51116  1  0  0  0  0
 52 53  1  0  0  0  0
 52 54  1  6  0  0  0
 52117  1  0  0  0  0
 53118  1  0  0  0  0
 54120  1  0  0  0  0
 54121  1  0  0  0  0
 55 56  1  0  0  0  0
 55124  1  0  0  0  0
 56 57  1  0  0  0  0
 56125  1  0  0  0  0
 57 59  1  0  0  0  0
 57126  1  0  0  0  0
 58 59  1  0  0  0  0
 58 60  1  1  0  0  0
 58127  1  0  0  0  0
 59128  1  0  0  0  0
 60130  1  0  0  0  0
 60131  1  0  0  0  0
 61 62  1  0  0  0  0
 61133  1  0  0  0  0
 62 63  1  0  0  0  0
 62135  1  0  0  0  0
 63 65  1  0  0  0  0
 63136  1  0  0  0  0
 64 65  1  0  0  0  0
 64 66  1  6  0  0  0
 64137  1  0  0  0  0
 65138  1  0  0  0  0
 66140  1  0  0  0  0
 66141  1  0  0  0  0
 66142  1  0  0  0  0
M  END
> <PUBCHEM_COMPOUND_CID>
52949153

> <PUBCHEM_COMPOUND_CANONICALIZED>
1

> <PUBCHEM_CACTVS_COMPLEXITY>
1790

> <PUBCHEM_CACTVS_HBOND_ACCEPTOR>
18

> <PUBCHEM_CACTVS_HBOND_DONOR>
11

> <PUBCHEM_CACTVS_ROTATABLE_BOND>
10

> <PUBCHEM_CACTVS_SUBSKEYS>
AAADcfB8PgAAAAAAAAAAAAAAAAAAAYAAAAA0aNGCAAAAAGDAAAAAGgAACAAADxSwgAMCCAAABgCIAgDSCAAAAAAgAAAAAAEAAAgREBIAAQAiQAAFgAAHAAHI6PyPgAAAAAAAAADAAAYAADAAAQAACAAAAA==

> <PUBCHEM_IUPAC_OPENEYE_NAME>
[(2S,3R,4S,5S,6R)-6-[[(2R,3R,4R,5S,6R)-3,4-dihydroxy-6-(hydroxymethyl)-5-[(2R,3R,4R,5R,6S)-3,4,5-trihydroxy-6-methyl-tetrahydropyran-2-yl]oxy-tetrahydropyran-2-yl]oxymethyl]-3,4,5-trihydroxy-tetrahydropyran-2-yl] (1R,3aS,5aR,5bR,7aR,9R,11aS,11bR,12R,13aR)-9,12-dihydroxy-1-isopropenyl-5a,5b,8,8,11a-pentamethyl-1,2,3,4,5,6,7,7a,9,10,11,11b,12,13,13a,13b-hexadecahydrocyclopenta[a]chrysene-3a-carboxylate

> <PUBCHEM_IUPAC_CAS_NAME>
(1R,3aS,5aR,5bR,7aR,9R,11aS,11bR,12R,13aR)-9,12-dihydroxy-5a,5b,8,8,11a-pentamethyl-1-(1-methylethenyl)-1,2,3,4,5,6,7,7a,9,10,11,11b,12,13,13a,13b-hexadecahydrocyclopenta[a]chrysene-3a-carboxylic acid [(2S,3R,4S,5S,6R)-6-[[(2R,3R,4R,5S,6R)-3,4-dihydroxy-6-(hydroxymethyl)-5-[[(2R,3R,4R,5R,6S)-3,4,5-trihydroxy-6-methyl-2-oxanyl]oxy]-2-oxanyl]oxymethyl]-3,4,5-trihydroxy-2-oxanyl] ester

> <PUBCHEM_IUPAC_NAME_MARKUP>
[(2<I>S</I>,3<I>R</I>,4<I>S</I>,5<I>S</I>,6<I>R</I>)-6-[[(2<I>R</I>,3<I>R</I>,4<I>R</I>,5<I>S</I>,6<I>R</I>)-3,4-dihydroxy-6-(hydroxymethyl)-5-[(2<I>R</I>,3<I>R</I>,4<I>R</I>,5<I>R</I>,6<I>S</I>)-3,4,5-trihydroxy-6-methyloxan-2-yl]oxyoxan-2-yl]oxymethyl]-3,4,5-trihydroxyoxan-2-yl] (1<I>R</I>,3<I>a</I><I>S</I>,5<I>a</I><I>R</I>,5<I>b</I><I>R</I>,7<I>a</I><I>R</I>,9<I>R</I>,11<I>a</I><I>S</I>,11<I>b</I><I>R</I>,12<I>R</I>,13<I>a</I><I>R</I>)-9,12-dihydroxy-5<I>a</I>,5<I>b</I>,8,8,11<I>a</I>-pentamethyl-1-prop-1-en-2-yl-1,2,3,4,5,6,7,7<I>a</I>,9,10,11,11<I>b</I>,12,13,13<I>a</I>,13<I>b</I>-hexadecahydrocyclopenta[a]chrysene-3<I>a</I>-carboxylate

> <PUBCHEM_IUPAC_NAME>
[(2S,3R,4S,5S,6R)-6-[[(2R,3R,4R,5S,6R)-3,4-dihydroxy-6-(hydroxymethyl)-5-[(2R,3R,4R,5R,6S)-3,4,5-trihydroxy-6-methyloxan-2-yl]oxyoxan-2-yl]oxymethyl]-3,4,5-trihydroxyoxan-2-yl] (1R,3aS,5aR,5bR,7aR,9R,11aS,11bR,12R,13aR)-9,12-dihydroxy-5a,5b,8,8,11a-pentamethyl-1-prop-1-en-2-yl-1,2,3,4,5,6,7,7a,9,10,11,11b,12,13,13a,13b-hexadecahydrocyclopenta[a]chrysene-3a-carboxylate

> <PUBCHEM_IUPAC_SYSTEMATIC_NAME>
[(2S,3R,4S,5S,6R)-6-[[(2R,3R,4R,5S,6R)-6-(hydroxymethyl)-5-[(2R,3R,4R,5R,6S)-6-methyl-3,4,5-tris(oxidanyl)oxan-2-yl]oxy-3,4-bis(oxidanyl)oxan-2-yl]oxymethyl]-3,4,5-tris(oxidanyl)oxan-2-yl] (1R,3aS,5aR,5bR,7aR,9R,11aS,11bR,12R,13aR)-5a,5b,8,8,11a-pentamethyl-9,12-bis(oxidanyl)-1-prop-1-en-2-yl-1,2,3,4,5,6,7,7a,9,10,11,11b,12,13,13a,13b-hexadecahydrocyclopenta[a]chrysene-3a-carboxylate

> <PUBCHEM_IUPAC_TRADITIONAL_NAME>
(1R,3aS,5aR,5bR,7aR,9R,11aS,11bR,12R,13aR)-9,12-dihydroxy-1-isopropenyl-5a,5b,8,8,11a-pentamethyl-1,2,3,4,5,6,7,7a,9,10,11,11b,12,13,13a,13b-hexadecahydrocyclopenta[a]chrysene-3a-carboxylic acid [(2S,3R,4S,5S,6R)-6-[[(2R,3R,4R,5S,6R)-3,4-dihydroxy-6-methylol-5-[(2R,3R,4R,5R,6S)-3,4,5-trihydroxy-6-methyl-tetrahydropyran-2-yl]oxy-tetrahydropyran-2-yl]oxymethyl]-3,4,5-trihydroxy-tetrahydropyran-2-yl] ester

> <PUBCHEM_IUPAC_INCHI>
InChI=1S/C48H78O18/c1-20(2)22-9-14-48(16-15-46(7)23(29(22)48)17-24(50)39-45(6)12-11-28(51)44(4,5)27(45)10-13-47(39,46)8)43(60)66-42-36(58)33(55)31(53)26(64-42)19-61-40-37(59)34(56)38(25(18-49)63-40)65-41-35(57)32(54)30(52)21(3)62-41/h21-42,49-59H,1,9-19H2,2-8H3/t21-,22-,23+,24+,25+,26+,27-,28+,29?,30-,31+,32+,33-,34+,35+,36+,37+,38+,39+,40+,41+,42-,45-,46+,47+,48-/m0/s1

> <PUBCHEM_IUPAC_INCHIKEY>
PRIVMLKLQLQDPB-WSLFHFMESA-N

> <PUBCHEM_XLOGP3_AA>
1.3

> <PUBCHEM_EXACT_MASS>
942.518816

> <PUBCHEM_MOLECULAR_FORMULA>
C48H78O18

> <PUBCHEM_MOLECULAR_WEIGHT>
943.1

> <PUBCHEM_OPENEYE_CAN_SMILES>
CC1C(C(C(C(O1)OC2C(OC(C(C2O)O)OCC3C(C(C(C(O3)OC(=O)C45CCC(C4C6CC(C7C8(CCC(C(C8CCC7(C6(CC5)C)C)(C)C)O)C)O)C(=C)C)O)O)O)CO)O)O)O

> <PUBCHEM_OPENEYE_ISO_SMILES>
C[C@H]1[C@@H]([C@H]([C@H]([C@H](O1)O[C@@H]2[C@H](O[C@H]([C@@H]([C@H]2O)O)OC[C@@H]3[C@H]([C@@H]([C@H]([C@@H](O3)OC(=O)[C@]45CC[C@H](C4[C@H]6C[C@H]([C@@H]7[C@]8(CC[C@H](C([C@@H]8CC[C@]7([C@@]6(CC5)C)C)(C)C)O)C)O)C(=C)C)O)O)O)CO)O)O)O

> <PUBCHEM_CACTVS_TPSA>
295

> <PUBCHEM_MONOISOTOPIC_WEIGHT>
942.518816

> <PUBCHEM_TOTAL_CHARGE>
0

> <PUBCHEM_HEAVY_ATOM_COUNT>
66

> <PUBCHEM_ATOM_DEF_STEREO_COUNT>
25

> <PUBCHEM_ATOM_UDEF_STEREO_COUNT>
1

> <PUBCHEM_BOND_DEF_STEREO_COUNT>
0

> <PUBCHEM_BOND_UDEF_STEREO_COUNT>
0

> <PUBCHEM_ISOTOPIC_ATOM_COUNT>
0

> <PUBCHEM_COMPONENT_COUNT>
1

> <PUBCHEM_CACTVS_TAUTO_COUNT>
-1

> <PUBCHEM_COORDINATE_TYPE>
1
5
255

> <PUBCHEM_BONDANNOTATIONS>
27  1  6
56  11  6
57  12  5
59  13  6
61  13  6
62  16  6
63  17  6
65  18  5
19  36  5
41  2  6
20  37  6
21  67  6
22  68  5
23  40  5
24  34  3
25  70  6
26  43  5
49  3  6
52  54  6
58  60  5
50  6  5
64  66  6
51  7  6
53  8  5
55  9  5

$$$$
