13653327
  -OEChem-09292007313D

 85 89  0     1  0  0  0  0  0999 V2000
    7.1089    0.9406    0.1770 O   0  0  0  0  0  0  0  0  0  0  0  0
    5.5054    2.8205   -1.2718 O   0  0  0  0  0  0  0  0  0  0  0  0
   -2.9414   -1.5097   -1.7290 O   0  0  0  0  0  0  0  0  0  0  0  0
   -4.1528   -2.9780   -0.4202 O   0  0  0  0  0  0  0  0  0  0  0  0
    0.5789   -0.8172    0.3701 C   0  0  2  0  0  0  0  0  0  0  0  0
    1.3707    0.3440   -0.3433 C   0  0  1  0  0  0  0  0  0  0  0  0
    2.9226    0.1034   -0.6258 C   0  0  2  0  0  0  0  0  0  0  0  0
   -0.8611   -0.2202    0.8700 C   0  0  1  0  0  0  0  0  0  0  0  0
    3.5736   -0.3623    0.7277 C   0  0  1  0  0  0  0  0  0  0  0  0
    1.4089   -1.3701    1.5626 C   0  0  0  0  0  0  0  0  0  0  0  0
    2.8839   -1.6382    1.2528 C   0  0  0  0  0  0  0  0  0  0  0  0
   -1.5935    0.4347   -0.3184 C   0  0  0  0  0  0  0  0  0  0  0  0
    5.1454   -0.3926    0.7643 C   0  0  0  0  0  0  0  0  0  0  0  0
   -3.1220    0.5464   -0.3295 C   0  0  1  0  0  0  0  0  0  0  0  0
    0.5774    0.8983   -1.5491 C   0  0  0  0  0  0  0  0  0  0  0  0
    3.5654    1.4650   -1.0201 C   0  0  0  0  0  0  0  0  0  0  0  0
   -1.7133   -1.3409    1.5390 C   0  0  0  0  0  0  0  0  0  0  0  0
   -3.8277   -0.6838    0.2885 C   0  0  1  0  0  0  0  0  0  0  0  0
    0.3440   -2.0092   -0.6100 C   0  0  0  0  0  0  0  0  0  0  0  0
   -3.2115   -1.0379    1.6525 C   0  0  0  0  0  0  0  0  0  0  0  0
    5.6844    0.9929    0.2956 C   0  0  2  0  0  0  0  0  0  0  0  0
    3.1743   -0.8851   -1.7923 C   0  0  0  0  0  0  0  0  0  0  0  0
   -0.9108    0.9279   -1.3709 C   0  0  0  0  0  0  0  0  0  0  0  0
    5.0955    1.4702   -1.0326 C   0  0  2  0  0  0  0  0  0  0  0  0
   -0.6837    0.9001    1.9415 C   0  0  0  0  0  0  0  0  0  0  0  0
   -3.5810    1.8870    0.2895 C   0  0  0  0  0  0  0  0  0  0  0  0
   -5.3534   -0.4715    0.4084 C   0  0  0  0  0  0  0  0  0  0  0  0
   -5.1125    2.0744    0.3337 C   0  0  0  0  0  0  0  0  0  0  0  0
    5.6297   -0.5954    2.2282 C   0  0  0  0  0  0  0  0  0  0  0  0
    5.7680   -1.5460   -0.0495 C   0  0  0  0  0  0  0  0  0  0  0  0
   -5.7519    0.8619    1.0353 C   0  0  0  0  0  0  0  0  0  0  0  0
   -3.6769   -1.8724   -0.6398 C   0  0  0  0  0  0  0  0  0  0  0  0
   -5.6858    2.2610   -1.0839 C   0  0  0  0  0  0  0  0  0  0  0  0
   -5.4375    3.3455    1.1429 C   0  0  0  0  0  0  0  0  0  0  0  0
   -2.7200   -2.5435   -2.6936 C   0  0  0  0  0  0  0  0  0  0  0  0
    1.3811    1.1672    0.3842 H   0  0  0  0  0  0  0  0  0  0  0  0
    3.3121    0.4234    1.4571 H   0  0  0  0  0  0  0  0  0  0  0  0
    0.9567   -2.2946    1.9427 H   0  0  0  0  0  0  0  0  0  0  0  0
    1.4015   -0.6703    2.4011 H   0  0  0  0  0  0  0  0  0  0  0  0
    3.3442   -1.9713    2.1877 H   0  0  0  0  0  0  0  0  0  0  0  0
    2.9830   -2.4767    0.5590 H   0  0  0  0  0  0  0  0  0  0  0  0
   -3.4402    0.6319   -1.3790 H   0  0  0  0  0  0  0  0  0  0  0  0
    0.7682    0.3218   -2.4571 H   0  0  0  0  0  0  0  0  0  0  0  0
    0.9070    1.9231   -1.7569 H   0  0  0  0  0  0  0  0  0  0  0  0
    3.2265    2.2504   -0.3296 H   0  0  0  0  0  0  0  0  0  0  0  0
    3.2080    1.7832   -2.0083 H   0  0  0  0  0  0  0  0  0  0  0  0
   -1.3264   -1.5497    2.5449 H   0  0  0  0  0  0  0  0  0  0  0  0
   -1.6314   -2.2864    1.0016 H   0  0  0  0  0  0  0  0  0  0  0  0
    1.2764   -2.4077   -1.0059 H   0  0  0  0  0  0  0  0  0  0  0  0
   -0.1274   -2.8669   -0.1240 H   0  0  0  0  0  0  0  0  0  0  0  0
   -0.2660   -1.7358   -1.4715 H   0  0  0  0  0  0  0  0  0  0  0  0
   -3.7063   -1.9221    2.0761 H   0  0  0  0  0  0  0  0  0  0  0  0
   -3.3732   -0.2303    2.3744 H   0  0  0  0  0  0  0  0  0  0  0  0
    5.4657    1.7560    1.0554 H   0  0  0  0  0  0  0  0  0  0  0  0
   -1.4599    1.3860   -2.1911 H   0  0  0  0  0  0  0  0  0  0  0  0
    3.2560   -1.9225   -1.4648 H   0  0  0  0  0  0  0  0  0  0  0  0
    2.3937   -0.8512   -2.5537 H   0  0  0  0  0  0  0  0  0  0  0  0
    4.0971   -0.6679   -2.3353 H   0  0  0  0  0  0  0  0  0  0  0  0
    5.5012    0.8811   -1.8606 H   0  0  0  0  0  0  0  0  0  0  0  0
   -0.2417    1.8133    1.5308 H   0  0  0  0  0  0  0  0  0  0  0  0
   -1.6366    1.1955    2.3872 H   0  0  0  0  0  0  0  0  0  0  0  0
   -0.0737    0.5829    2.7894 H   0  0  0  0  0  0  0  0  0  0  0  0
   -3.2039    1.9740    1.3120 H   0  0  0  0  0  0  0  0  0  0  0  0
   -3.1271    2.7200   -0.2649 H   0  0  0  0  0  0  0  0  0  0  0  0
   -5.8020   -1.2821    0.9985 H   0  0  0  0  0  0  0  0  0  0  0  0
   -5.8206   -0.5479   -0.5826 H   0  0  0  0  0  0  0  0  0  0  0  0
    5.1871    0.1496    2.8988 H   0  0  0  0  0  0  0  0  0  0  0  0
    5.3720   -1.5880    2.6102 H   0  0  0  0  0  0  0  0  0  0  0  0
    6.7182   -0.5130    2.3168 H   0  0  0  0  0  0  0  0  0  0  0  0
    6.8372   -1.6533    0.1705 H   0  0  0  0  0  0  0  0  0  0  0  0
    5.3017   -2.5066    0.1906 H   0  0  0  0  0  0  0  0  0  0  0  0
    5.6958   -1.3926   -1.1265 H   0  0  0  0  0  0  0  0  0  0  0  0
   -6.8457    0.9504    1.0179 H   0  0  0  0  0  0  0  0  0  0  0  0
   -5.4664    0.8538    2.0951 H   0  0  0  0  0  0  0  0  0  0  0  0
    7.4864    0.9909    1.0707 H   0  0  0  0  0  0  0  0  0  0  0  0
   -5.5081    1.3971   -1.7302 H   0  0  0  0  0  0  0  0  0  0  0  0
   -6.7694    2.4222   -1.0488 H   0  0  0  0  0  0  0  0  0  0  0  0
   -5.2383    3.1328   -1.5750 H   0  0  0  0  0  0  0  0  0  0  0  0
   -4.9885    4.2329    0.6827 H   0  0  0  0  0  0  0  0  0  0  0  0
   -6.5193    3.5104    1.2030 H   0  0  0  0  0  0  0  0  0  0  0  0
   -5.0559    3.2742    2.1678 H   0  0  0  0  0  0  0  0  0  0  0  0
    5.1505    3.0860   -2.1375 H   0  0  0  0  0  0  0  0  0  0  0  0
   -2.2146   -3.3964   -2.2306 H   0  0  0  0  0  0  0  0  0  0  0  0
   -2.0784   -2.1408   -3.4817 H   0  0  0  0  0  0  0  0  0  0  0  0
   -3.6711   -2.8524   -3.1373 H   0  0  0  0  0  0  0  0  0  0  0  0
  1 21  1  0  0  0  0
  1 75  1  0  0  0  0
  2 24  1  0  0  0  0
  2 82  1  0  0  0  0
  3 32  1  0  0  0  0
  3 35  1  0  0  0  0
  4 32  2  0  0  0  0
  5  6  1  0  0  0  0
  5  8  1  0  0  0  0
  5 10  1  0  0  0  0
  5 19  1  0  0  0  0
  6  7  1  0  0  0  0
  6 15  1  0  0  0  0
  6 36  1  0  0  0  0
  7  9  1  0  0  0  0
  7 16  1  0  0  0  0
  7 22  1  0  0  0  0
  8 12  1  0  0  0  0
  8 17  1  0  0  0  0
  8 25  1  0  0  0  0
  9 11  1  0  0  0  0
  9 13  1  0  0  0  0
  9 37  1  0  0  0  0
 10 11  1  0  0  0  0
 10 38  1  0  0  0  0
 10 39  1  0  0  0  0
 11 40  1  0  0  0  0
 11 41  1  0  0  0  0
 12 14  1  0  0  0  0
 12 23  2  0  0  0  0
 13 21  1  0  0  0  0
 13 29  1  0  0  0  0
 13 30  1  0  0  0  0
 14 18  1  0  0  0  0
 14 26  1  0  0  0  0
 14 42  1  0  0  0  0
 15 23  1  0  0  0  0
 15 43  1  0  0  0  0
 15 44  1  0  0  0  0
 16 24  1  0  0  0  0
 16 45  1  0  0  0  0
 16 46  1  0  0  0  0
 17 20  1  0  0  0  0
 17 47  1  0  0  0  0
 17 48  1  0  0  0  0
 18 20  1  0  0  0  0
 18 27  1  0  0  0  0
 18 32  1  0  0  0  0
 19 49  1  0  0  0  0
 19 50  1  0  0  0  0
 19 51  1  0  0  0  0
 20 52  1  0  0  0  0
 20 53  1  0  0  0  0
 21 24  1  0  0  0  0
 21 54  1  0  0  0  0
 22 56  1  0  0  0  0
 22 57  1  0  0  0  0
 22 58  1  0  0  0  0
 23 55  1  0  0  0  0
 24 59  1  0  0  0  0
 25 60  1  0  0  0  0
 25 61  1  0  0  0  0
 25 62  1  0  0  0  0
 26 28  1  0  0  0  0
 26 63  1  0  0  0  0
 26 64  1  0  0  0  0
 27 31  1  0  0  0  0
 27 65  1  0  0  0  0
 27 66  1  0  0  0  0
 28 31  1  0  0  0  0
 28 33  1  0  0  0  0
 28 34  1  0  0  0  0
 29 67  1  0  0  0  0
 29 68  1  0  0  0  0
 29 69  1  0  0  0  0
 30 70  1  0  0  0  0
 30 71  1  0  0  0  0
 30 72  1  0  0  0  0
 31 73  1  0  0  0  0
 31 74  1  0  0  0  0
 33 76  1  0  0  0  0
 33 77  1  0  0  0  0
 33 78  1  0  0  0  0
 34 79  1  0  0  0  0
 34 80  1  0  0  0  0
 34 81  1  0  0  0  0
 35 83  1  0  0  0  0
 35 84  1  0  0  0  0
 35 85  1  0  0  0  0
M  END
> <PUBCHEM_COMPOUND_CID>
13653327

> <PUBCHEM_CONFORMER_RMSD>
0.8

> <PUBCHEM_CONFORMER_DIVERSEORDER>
2
3
1

> <PUBCHEM_MMFF94_PARTIAL_CHARGES>
17
1 -0.68
12 -0.28
14 0.14
15 0.14
18 0.06
2 -0.68
21 0.28
23 -0.29
24 0.28
3 -0.43
32 0.66
35 0.28
4 -0.57
55 0.15
75 0.4
8 0.14
82 0.4

> <PUBCHEM_EFFECTIVE_ROTOR_COUNT>
4.6

> <PUBCHEM_PHARMACOPHORE_FEATURES>
12
1 1 acceptor
1 1 donor
1 2 acceptor
1 2 donor
1 4 acceptor
3 13 29 30 hydrophobe
3 28 33 34 hydrophobe
6 14 18 26 27 28 31 rings
6 5 6 7 9 10 11 rings
6 5 6 8 12 15 23 rings
6 7 9 13 16 21 24 rings
6 8 12 14 17 18 20 rings

> <PUBCHEM_HEAVY_ATOM_COUNT>
35

> <PUBCHEM_ATOM_DEF_STEREO_COUNT>
9

> <PUBCHEM_ATOM_UDEF_STEREO_COUNT>
0

> <PUBCHEM_BOND_DEF_STEREO_COUNT>
0

> <PUBCHEM_BOND_UDEF_STEREO_COUNT>
0

> <PUBCHEM_ISOTOPIC_ATOM_COUNT>
0

> <PUBCHEM_COMPONENT_COUNT>
1

> <PUBCHEM_CACTVS_TAUTO_COUNT>
1

> <PUBCHEM_CONFORMER_ID>
00D0554F00000002

> <PUBCHEM_MMFF94_ENERGY>
157.6338

> <PUBCHEM_FEATURE_SELFOVERLAP>
60.982

> <PUBCHEM_SHAPE_FINGERPRINT>
10290309 65 17704083871531385679
105312 117 17917991638564389853
10595046 47 18335702792508590730
10675989 125 17267801866987461881
10906281 52 17313967259033751634
12107698 1 18337111280542833273
12236239 1 18409729560437850578
12422481 6 17895189944156194950
12616971 3 18186796972394154266
12633257 1 16515695471537938317
12788726 201 18339640153166506147
13224815 77 17894348886675796630
13690498 29 17916017044435445391
13782708 43 16200144426148750007
14068700 675 17985247811426893023
144659 39 18339637850346033279
14790565 3 18259707795702351088
14849402 71 18113904918267959140
14856354 85 18272370918854665903
15064981 113 17986950756826769861
15131766 46 14998855470046050767
15183329 4 18040154006769478344
15361156 5 18187658976905056158
15788980 27 18408887338836536378
15840311 113 18117285748971945313
16114785 44 16371552702215979191
17349148 13 17458338646077219402
17980427 23 18186524323279753965
19319366 153 18189612748890774819
19377110 9 18187362151082083681
20511986 3 18335128778761684633
21033648 144 17313381283650036030
21033648 29 17703512095562075361
21130935 74 17894630327440742386
21424621 283 17630618817142873617
22122407 14 18262249901077883568
23522609 53 17896344479048643100
23559900 14 17987807293517047294
23569914 152 13681551174038130961
23569914 2 17197929173794306064
23569943 247 16662037037811662802
24771293 8 18187361091359934892
268830 7 17822287998413647072
32027 91 17700430086759679718
34797466 226 18059589008688373628
350125 39 17749108864383057876
3680242 22 17603867758956811288
392239 28 17894907417329669868
4073 2 17313395581902003040
4093350 32 18272092665678258006
4169191 19 17313951964956320268
5104073 3 17676212385369065440
6086070 43 18271234010519830177
633830 44 18259706700844614078
7226269 152 18336828589737651889

> <PUBCHEM_SHAPE_MULTIPOLES>
696.81
15.64
2.79
1.96
8.57
0.43
-0.22
7.13
1.85
-2.8
-0.71
0.1
-0.6
-2.21

> <PUBCHEM_SHAPE_SELFOVERLAP>
1479.997

> <PUBCHEM_SHAPE_VOLUME>
385.3

> <PUBCHEM_COORDINATE_TYPE>
2
5
10

$$$$
