44437692
  -OEChem-09292003353D

 48 49  0     1  0  0  0  0  0999 V2000
    0.8108   -0.8702   -0.4047 O   0  0  0  0  0  0  0  0  0  0  0  0
    3.6772   -2.9843   -0.1232 O   0  0  0  0  0  0  0  0  0  0  0  0
    1.5364   -3.3931   -0.8771 O   0  0  0  0  0  0  0  0  0  0  0  0
    1.5366    4.3469   -0.7450 O   0  0  0  0  0  0  0  0  0  0  0  0
    3.5963    4.9579    1.0185 O   0  0  0  0  0  0  0  0  0  0  0  0
    0.2066   -1.4832    1.7394 O   0  0  0  0  0  0  0  0  0  0  0  0
   -5.6926    1.4431   -1.8721 O   0  0  0  0  0  0  0  0  0  0  0  0
   -7.7866    0.3953   -0.3759 O   0  0  0  0  0  0  0  0  0  0  0  0
    3.0616   -0.2990   -1.0152 C   0  0  0  0  0  0  0  0  0  0  0  0
    2.1722   -1.1705   -0.1255 C   0  0  2  0  0  0  0  0  0  0  0  0
    3.2026    1.1044   -0.4759 C   0  0  0  0  0  0  0  0  0  0  0  0
    2.2981    2.0937   -0.8616 C   0  0  0  0  0  0  0  0  0  0  0  0
    4.2360    1.4111    0.4094 C   0  0  0  0  0  0  0  0  0  0  0  0
    2.3887   -2.6423   -0.4202 C   0  0  0  0  0  0  0  0  0  0  0  0
    2.4271    3.3896   -0.3621 C   0  0  0  0  0  0  0  0  0  0  0  0
    4.3651    2.7070    0.9090 C   0  0  0  0  0  0  0  0  0  0  0  0
    3.4604    3.6963    0.5231 C   0  0  0  0  0  0  0  0  0  0  0  0
   -0.0651   -1.0738    0.6219 C   0  0  0  0  0  0  0  0  0  0  0  0
    4.0288   -4.3474   -0.3805 C   0  0  0  0  0  0  0  0  0  0  0  0
   -1.4190   -0.7097    0.1462 C   0  0  0  0  0  0  0  0  0  0  0  0
   -3.8571   -0.5019    0.6200 C   0  0  0  0  0  0  0  0  0  0  0  0
   -2.4642   -0.8229    0.9779 C   0  0  0  0  0  0  0  0  0  0  0  0
    5.4784   -4.5628   -0.0013 C   0  0  0  0  0  0  0  0  0  0  0  0
   -4.1247    0.3274   -0.4691 C   0  0  0  0  0  0  0  0  0  0  0  0
   -4.9084   -1.0270    1.3717 C   0  0  0  0  0  0  0  0  0  0  0  0
   -5.4434    0.6316   -0.8067 C   0  0  0  0  0  0  0  0  0  0  0  0
   -6.2271   -0.7229    1.0341 C   0  0  0  0  0  0  0  0  0  0  0  0
   -6.4946    0.1065   -0.0552 C   0  0  0  0  0  0  0  0  0  0  0  0
    4.0668   -0.7261   -1.1214 H   0  0  0  0  0  0  0  0  0  0  0  0
    2.6526   -0.2523   -2.0335 H   0  0  0  0  0  0  0  0  0  0  0  0
    2.4046   -1.0005    0.9340 H   0  0  0  0  0  0  0  0  0  0  0  0
    1.4919    1.8532   -1.5505 H   0  0  0  0  0  0  0  0  0  0  0  0
    4.9451    0.6480    0.7192 H   0  0  0  0  0  0  0  0  0  0  0  0
    5.1743    2.9321    1.5986 H   0  0  0  0  0  0  0  0  0  0  0  0
    3.3884   -5.0082    0.2143 H   0  0  0  0  0  0  0  0  0  0  0  0
    3.8883   -4.5659   -1.4450 H   0  0  0  0  0  0  0  0  0  0  0  0
   -1.5066   -0.3800   -0.8824 H   0  0  0  0  0  0  0  0  0  0  0  0
   -2.3187   -1.1848    1.9932 H   0  0  0  0  0  0  0  0  0  0  0  0
    6.1298   -3.8953   -0.5750 H   0  0  0  0  0  0  0  0  0  0  0  0
    5.6383   -4.3309    1.0569 H   0  0  0  0  0  0  0  0  0  0  0  0
    5.7816   -5.5971   -0.1860 H   0  0  0  0  0  0  0  0  0  0  0  0
   -3.3276    0.7685   -1.0610 H   0  0  0  0  0  0  0  0  0  0  0  0
    0.8923    3.9536   -1.3582 H   0  0  0  0  0  0  0  0  0  0  0  0
   -4.7186   -1.6760    2.2232 H   0  0  0  0  0  0  0  0  0  0  0  0
    4.3647    4.9833    1.6143 H   0  0  0  0  0  0  0  0  0  0  0  0
   -7.0367   -1.1390    1.6278 H   0  0  0  0  0  0  0  0  0  0  0  0
   -4.8481    1.7108   -2.2734 H   0  0  0  0  0  0  0  0  0  0  0  0
   -8.3772   -0.0549    0.2523 H   0  0  0  0  0  0  0  0  0  0  0  0
  1 10  1  0  0  0  0
  1 18  1  0  0  0  0
  2 14  1  0  0  0  0
  2 19  1  0  0  0  0
  3 14  2  0  0  0  0
  4 15  1  0  0  0  0
  4 43  1  0  0  0  0
  5 17  1  0  0  0  0
  5 45  1  0  0  0  0
  6 18  2  0  0  0  0
  7 26  1  0  0  0  0
  7 47  1  0  0  0  0
  8 28  1  0  0  0  0
  8 48  1  0  0  0  0
  9 10  1  0  0  0  0
  9 11  1  0  0  0  0
  9 29  1  0  0  0  0
  9 30  1  0  0  0  0
 10 14  1  0  0  0  0
 10 31  1  0  0  0  0
 11 12  2  0  0  0  0
 11 13  1  0  0  0  0
 12 15  1  0  0  0  0
 12 32  1  0  0  0  0
 13 16  2  0  0  0  0
 13 33  1  0  0  0  0
 15 17  2  0  0  0  0
 16 17  1  0  0  0  0
 16 34  1  0  0  0  0
 18 20  1  0  0  0  0
 19 23  1  0  0  0  0
 19 35  1  0  0  0  0
 19 36  1  0  0  0  0
 20 22  2  0  0  0  0
 20 37  1  0  0  0  0
 21 22  1  0  0  0  0
 21 24  2  0  0  0  0
 21 25  1  0  0  0  0
 22 38  1  0  0  0  0
 23 39  1  0  0  0  0
 23 40  1  0  0  0  0
 23 41  1  0  0  0  0
 24 26  1  0  0  0  0
 24 42  1  0  0  0  0
 25 27  2  0  0  0  0
 25 44  1  0  0  0  0
 26 28  2  0  0  0  0
 27 28  1  0  0  0  0
 27 46  1  0  0  0  0
M  END
> <PUBCHEM_COMPOUND_CID>
44437692

> <PUBCHEM_CONFORMER_RMSD>
1

> <PUBCHEM_CONFORMER_DIVERSEORDER>
1
84
79
51
94
56
85
46
27
63
89
44
66
22
37
70
95
96
87
60
36
33
88
49
9
90
58
81
82
75
5
12
86
13
42
53
30
59
34
76
74
25
97
24
47
14
98
83
64
52
78
43
39
68
40
41
38
45
23
93
54
55
73
11
26
17
62
69
6
19
71
50
77
4
15
28
80
18
8
92
57
16
32
35
7
31
3
20
72
91
48
21
61
67
10
2
29
65

> <PUBCHEM_MMFF94_PARTIAL_CHARGES>
39
1 -0.43
10 0.34
11 -0.14
12 -0.15
13 -0.15
14 0.66
15 0.08
16 -0.15
17 0.08
18 0.71
19 0.28
2 -0.43
20 -0.14
21 0.03
22 -0.18
24 -0.15
25 -0.15
26 0.08
27 -0.15
28 0.08
3 -0.57
32 0.15
33 0.15
34 0.15
37 0.15
38 0.15
4 -0.53
42 0.15
43 0.45
44 0.15
45 0.45
46 0.15
47 0.45
48 0.45
5 -0.53
6 -0.57
7 -0.53
8 -0.53
9 0.14

> <PUBCHEM_EFFECTIVE_ROTOR_COUNT>
9

> <PUBCHEM_PHARMACOPHORE_FEATURES>
8
1 3 acceptor
1 4 donor
1 5 donor
1 6 acceptor
1 7 donor
1 8 donor
6 11 12 13 15 16 17 rings
6 21 24 25 26 27 28 rings

> <PUBCHEM_HEAVY_ATOM_COUNT>
28

> <PUBCHEM_ATOM_DEF_STEREO_COUNT>
1

> <PUBCHEM_ATOM_UDEF_STEREO_COUNT>
0

> <PUBCHEM_BOND_DEF_STEREO_COUNT>
1

> <PUBCHEM_BOND_UDEF_STEREO_COUNT>
0

> <PUBCHEM_ISOTOPIC_ATOM_COUNT>
0

> <PUBCHEM_COMPONENT_COUNT>
1

> <PUBCHEM_CACTVS_TAUTO_COUNT>
288

> <PUBCHEM_CONFORMER_ID>
02A610BC00000001

> <PUBCHEM_MMFF94_ENERGY>
62.6443

> <PUBCHEM_FEATURE_SELFOVERLAP>
40.606

> <PUBCHEM_SHAPE_FINGERPRINT>
10411042 1 18123191204397256678
12166972 35 18201155434269263739
12730499 353 18338810008073874411
12769317 202 18341893051515724073
13402501 40 18187924040606675653
13955234 65 18411144644840811778
15021287 119 18199740354631203975
15419008 47 17895758378783003342
17844677 252 18339931403303568543
18681886 176 18267298742382264131
1979834 28 18261679284744865365
20157964 124 18412829122745647033
20238998 120 18267864970159758946
20715895 44 18339923839033224120
21049683 271 18263097556598602846
21304303 282 17482534692574601534
2132832 1 18058736775602474666
21475661 188 18115586100761929096
21968339 14 18343010116627339793
23559900 14 18409449159324608243
376196 1 18191303995126355962
44317340 157 18410859876251548851
57124632 79 18340204214925249896
59521099 67 18270674264659484537
6004065 56 18337673006120365466
6695519 79 17766866165586356099
6697151 62 18192409901744592759
9981440 41 17977948208984394578

> <PUBCHEM_SHAPE_MULTIPOLES>
529.27
16.16
6.12
1.2
31.91
0.98
-0.05
-0.78
0.54
-16.87
0
0.88
0.24
2.53

> <PUBCHEM_SHAPE_SELFOVERLAP>
1119.816

> <PUBCHEM_SHAPE_VOLUME>
294.9

> <PUBCHEM_COORDINATE_TYPE>
2
5
10

$$$$
