14831162
  -OEChem-09292003013D

 81 85  0     1  0  0  0  0  0999 V2000
    7.0696    0.8056    0.7340 O   0  0  0  0  0  0  0  0  0  0  0  0
    0.5643   -0.7476   -0.3903 C   0  0  2  0  0  0  0  0  0  0  0  0
    1.3221    0.5998   -0.0575 C   0  0  1  0  0  0  0  0  0  0  0  0
   -0.8973   -0.7254    0.3463 C   0  0  1  0  0  0  0  0  0  0  0  0
    2.8713    0.6713   -0.4399 C   0  0  2  0  0  0  0  0  0  0  0  0
   -1.7047    0.5514   -0.1134 C   0  0  1  0  0  0  0  0  0  0  0  0
    3.5651   -0.6049    0.1709 C   0  0  1  0  0  0  0  0  0  0  0  0
    1.4255   -1.9502    0.0909 C   0  0  0  0  0  0  0  0  0  0  0  0
    0.4924    1.8174   -0.5176 C   0  0  0  0  0  0  0  0  0  0  0  0
   -3.2056    0.6495    0.4119 C   0  0  2  0  0  0  0  0  0  0  0  0
   -0.8982    1.8460    0.1143 C   0  0  0  0  0  0  0  0  0  0  0  0
    2.8959   -1.8974   -0.3362 C   0  0  0  0  0  0  0  0  0  0  0  0
    5.1391   -0.6197    0.1451 C   0  0  0  0  0  0  0  0  0  0  0  0
    3.5001    1.9248    0.2483 C   0  0  0  0  0  0  0  0  0  0  0  0
   -1.7433   -1.9791   -0.0219 C   0  0  0  0  0  0  0  0  0  0  0  0
    0.3855   -0.9305   -1.9290 C   0  0  0  0  0  0  0  0  0  0  0  0
   -0.7464   -0.7497    1.8995 C   0  0  0  0  0  0  0  0  0  0  0  0
    3.0883    0.8261   -1.9648 C   0  0  0  0  0  0  0  0  0  0  0  0
   -3.8575   -0.7300    0.5375 C   0  0  0  0  0  0  0  0  0  0  0  0
    5.6483    0.6962    0.8043 C   0  0  2  0  0  0  0  0  0  0  0  0
    5.0271    1.9611    0.2225 C   0  0  0  0  0  0  0  0  0  0  0  0
   -4.0338    1.4459   -0.6511 C   0  0  0  0  0  0  0  0  0  0  0  0
   -3.1933   -1.8814    0.3403 C   0  0  0  0  0  0  0  0  0  0  0  0
   -3.3041    1.4218    1.7547 C   0  0  0  0  0  0  0  0  0  0  0  0
   -5.3466   -0.7572    0.8161 C   0  0  0  0  0  0  0  0  0  0  0  0
   -6.1523    0.0443   -0.2317 C   0  0  0  0  0  0  0  0  0  0  0  0
   -5.5481    1.4572   -0.3960 C   0  0  0  0  0  0  0  0  0  0  0  0
    5.6705   -1.7956    1.0117 C   0  0  0  0  0  0  0  0  0  0  0  0
    5.7370   -0.8269   -1.2607 C   0  0  0  0  0  0  0  0  0  0  0  0
   -6.1610   -0.6977   -1.5846 C   0  0  0  0  0  0  0  0  0  0  0  0
   -7.6100    0.1749    0.2468 C   0  0  0  0  0  0  0  0  0  0  0  0
    1.3373    0.6638    1.0389 H   0  0  0  0  0  0  0  0  0  0  0  0
   -1.8022    0.4542   -1.2025 H   0  0  0  0  0  0  0  0  0  0  0  0
    3.3242   -0.5689    1.2472 H   0  0  0  0  0  0  0  0  0  0  0  0
    0.9907   -2.8941   -0.2601 H   0  0  0  0  0  0  0  0  0  0  0  0
    1.4348   -2.0097    1.1820 H   0  0  0  0  0  0  0  0  0  0  0  0
    0.3826    1.8394   -1.6058 H   0  0  0  0  0  0  0  0  0  0  0  0
    0.9912    2.7516   -0.2424 H   0  0  0  0  0  0  0  0  0  0  0  0
   -0.7806    2.0453    1.1851 H   0  0  0  0  0  0  0  0  0  0  0  0
   -1.4397    2.7030   -0.3019 H   0  0  0  0  0  0  0  0  0  0  0  0
    3.3798   -2.7778    0.0976 H   0  0  0  0  0  0  0  0  0  0  0  0
    2.9905   -2.0098   -1.4191 H   0  0  0  0  0  0  0  0  0  0  0  0
    3.1788    1.9669    1.2975 H   0  0  0  0  0  0  0  0  0  0  0  0
    3.1366    2.8449   -0.2237 H   0  0  0  0  0  0  0  0  0  0  0  0
   -1.3222   -2.8653    0.4688 H   0  0  0  0  0  0  0  0  0  0  0  0
   -1.7291   -2.1830   -1.0949 H   0  0  0  0  0  0  0  0  0  0  0  0
    1.3302   -0.9372   -2.4673 H   0  0  0  0  0  0  0  0  0  0  0  0
   -0.0649   -1.8963   -2.1750 H   0  0  0  0  0  0  0  0  0  0  0  0
   -0.2271   -0.1547   -2.3911 H   0  0  0  0  0  0  0  0  0  0  0  0
   -0.1932   -1.6250    2.2483 H   0  0  0  0  0  0  0  0  0  0  0  0
   -0.2504    0.1379    2.2969 H   0  0  0  0  0  0  0  0  0  0  0  0
   -1.7114   -0.8315    2.4058 H   0  0  0  0  0  0  0  0  0  0  0  0
    3.9819    1.4068   -2.2064 H   0  0  0  0  0  0  0  0  0  0  0  0
    3.2074   -0.1289   -2.4785 H   0  0  0  0  0  0  0  0  0  0  0  0
    2.2702    1.3633   -2.4498 H   0  0  0  0  0  0  0  0  0  0  0  0
    5.4017    0.6685    1.8738 H   0  0  0  0  0  0  0  0  0  0  0  0
    5.4031    2.1412   -0.7904 H   0  0  0  0  0  0  0  0  0  0  0  0
    5.3747    2.8274    0.8006 H   0  0  0  0  0  0  0  0  0  0  0  0
   -3.8585    1.0294   -1.6515 H   0  0  0  0  0  0  0  0  0  0  0  0
   -3.6880    2.4859   -0.6980 H   0  0  0  0  0  0  0  0  0  0  0  0
   -3.7290   -2.8259    0.3985 H   0  0  0  0  0  0  0  0  0  0  0  0
   -2.6652    1.0051    2.5342 H   0  0  0  0  0  0  0  0  0  0  0  0
   -3.0225    2.4736    1.6307 H   0  0  0  0  0  0  0  0  0  0  0  0
   -4.3189    1.4319    2.1639 H   0  0  0  0  0  0  0  0  0  0  0  0
   -5.7200   -1.7897    0.8476 H   0  0  0  0  0  0  0  0  0  0  0  0
   -5.5260   -0.3573    1.8214 H   0  0  0  0  0  0  0  0  0  0  0  0
   -5.7544    2.0563    0.4996 H   0  0  0  0  0  0  0  0  0  0  0  0
   -6.0418    1.9817   -1.2244 H   0  0  0  0  0  0  0  0  0  0  0  0
    5.4705   -2.7679    0.5504 H   0  0  0  0  0  0  0  0  0  0  0  0
    6.7563   -1.7337    1.1485 H   0  0  0  0  0  0  0  0  0  0  0  0
    5.2142   -1.7927    2.0079 H   0  0  0  0  0  0  0  0  0  0  0  0
    6.8126   -1.0345   -1.2058 H   0  0  0  0  0  0  0  0  0  0  0  0
    5.2800   -1.6802   -1.7716 H   0  0  0  0  0  0  0  0  0  0  0  0
    5.6293    0.0493   -1.9007 H   0  0  0  0  0  0  0  0  0  0  0  0
    7.3148    0.9937   -0.1875 H   0  0  0  0  0  0  0  0  0  0  0  0
   -5.1542   -0.8479   -1.9862 H   0  0  0  0  0  0  0  0  0  0  0  0
   -6.6228   -1.6869   -1.4854 H   0  0  0  0  0  0  0  0  0  0  0  0
   -6.7341   -0.1398   -2.3340 H   0  0  0  0  0  0  0  0  0  0  0  0
   -7.6668    0.6961    1.2091 H   0  0  0  0  0  0  0  0  0  0  0  0
   -8.2136    0.7393   -0.4729 H   0  0  0  0  0  0  0  0  0  0  0  0
   -8.0744   -0.8094    0.3746 H   0  0  0  0  0  0  0  0  0  0  0  0
  1 20  1  0  0  0  0
  1 75  1  0  0  0  0
  2  3  1  0  0  0  0
  2  4  1  0  0  0  0
  2  8  1  0  0  0  0
  2 16  1  0  0  0  0
  3  5  1  0  0  0  0
  3  9  1  0  0  0  0
  3 32  1  0  0  0  0
  4  6  1  0  0  0  0
  4 15  1  0  0  0  0
  4 17  1  0  0  0  0
  5  7  1  0  0  0  0
  5 14  1  0  0  0  0
  5 18  1  0  0  0  0
  6 10  1  0  0  0  0
  6 11  1  0  0  0  0
  6 33  1  0  0  0  0
  7 12  1  0  0  0  0
  7 13  1  0  0  0  0
  7 34  1  0  0  0  0
  8 12  1  0  0  0  0
  8 35  1  0  0  0  0
  8 36  1  0  0  0  0
  9 11  1  0  0  0  0
  9 37  1  0  0  0  0
  9 38  1  0  0  0  0
 10 19  1  0  0  0  0
 10 22  1  0  0  0  0
 10 24  1  0  0  0  0
 11 39  1  0  0  0  0
 11 40  1  0  0  0  0
 12 41  1  0  0  0  0
 12 42  1  0  0  0  0
 13 20  1  0  0  0  0
 13 28  1  0  0  0  0
 13 29  1  0  0  0  0
 14 21  1  0  0  0  0
 14 43  1  0  0  0  0
 14 44  1  0  0  0  0
 15 23  1  0  0  0  0
 15 45  1  0  0  0  0
 15 46  1  0  0  0  0
 16 47  1  0  0  0  0
 16 48  1  0  0  0  0
 16 49  1  0  0  0  0
 17 50  1  0  0  0  0
 17 51  1  0  0  0  0
 17 52  1  0  0  0  0
 18 53  1  0  0  0  0
 18 54  1  0  0  0  0
 18 55  1  0  0  0  0
 19 23  2  0  0  0  0
 19 25  1  0  0  0  0
 20 21  1  0  0  0  0
 20 56  1  0  0  0  0
 21 57  1  0  0  0  0
 21 58  1  0  0  0  0
 22 27  1  0  0  0  0
 22 59  1  0  0  0  0
 22 60  1  0  0  0  0
 23 61  1  0  0  0  0
 24 62  1  0  0  0  0
 24 63  1  0  0  0  0
 24 64  1  0  0  0  0
 25 26  1  0  0  0  0
 25 65  1  0  0  0  0
 25 66  1  0  0  0  0
 26 27  1  0  0  0  0
 26 30  1  0  0  0  0
 26 31  1  0  0  0  0
 27 67  1  0  0  0  0
 27 68  1  0  0  0  0
 28 69  1  0  0  0  0
 28 70  1  0  0  0  0
 28 71  1  0  0  0  0
 29 72  1  0  0  0  0
 29 73  1  0  0  0  0
 29 74  1  0  0  0  0
 30 76  1  0  0  0  0
 30 77  1  0  0  0  0
 30 78  1  0  0  0  0
 31 79  1  0  0  0  0
 31 80  1  0  0  0  0
 31 81  1  0  0  0  0
M  END
> <PUBCHEM_COMPOUND_CID>
14831162

> <PUBCHEM_CONFORMER_RMSD>
0.8

> <PUBCHEM_CONFORMER_DIVERSEORDER>
1

> <PUBCHEM_MMFF94_PARTIAL_CHARGES>
9
1 -0.68
10 0.14
15 0.14
19 -0.28
20 0.28
23 -0.29
25 0.14
61 0.15
75 0.4

> <PUBCHEM_EFFECTIVE_ROTOR_COUNT>
2.6

> <PUBCHEM_PHARMACOPHORE_FEATURES>
9
1 1 acceptor
1 1 donor
3 13 28 29 hydrophobe
3 26 30 31 hydrophobe
6 10 19 22 25 26 27 rings
6 2 3 4 6 9 11 rings
6 2 3 5 7 8 12 rings
6 4 6 10 15 19 23 rings
6 5 7 13 14 20 21 rings

> <PUBCHEM_HEAVY_ATOM_COUNT>
31

> <PUBCHEM_ATOM_DEF_STEREO_COUNT>
8

> <PUBCHEM_ATOM_UDEF_STEREO_COUNT>
0

> <PUBCHEM_BOND_DEF_STEREO_COUNT>
0

> <PUBCHEM_BOND_UDEF_STEREO_COUNT>
0

> <PUBCHEM_ISOTOPIC_ATOM_COUNT>
0

> <PUBCHEM_COMPONENT_COUNT>
1

> <PUBCHEM_CACTVS_TAUTO_COUNT>
1

> <PUBCHEM_CONFORMER_ID>
00E24E3A00000001

> <PUBCHEM_MMFF94_ENERGY>
146.0514

> <PUBCHEM_FEATURE_SELFOVERLAP>
45.73

> <PUBCHEM_SHAPE_FINGERPRINT>
10 15 18261107504818477968
10299344 5 11025795384227824849
10673678 19 11383245588248316682
10906281 52 18263663834265123363
11456790 92 18411986823840476777
11578080 2 17129562790676830528
11719270 70 18412823564583673702
11796584 16 14923953349032253344
12166972 35 18408324393131038285
12236239 1 17703790310231015527
12422481 6 18261390018823599484
12516196 113 18272368663559232081
12838862 33 18337372907621146265
13224815 77 18341621416461757224
13402501 40 18408603664614965512
13533116 47 18040992887514458434
13782708 43 17131838646465502326
13811026 1 18410003312926284348
13914758 101 17313097523998500757
14394314 77 18270970033952443241
14856354 85 15841548605203420781
15142383 8 15864059967077659286
15183329 4 18186526492433358375
15196674 1 18408887355926487808
15461852 350 17988360472293016502
15537594 2 10953462942047355745
15788980 27 17385449829622362521
17349148 13 18272939314800237869
17857418 61 18410573985156725905
17980427 23 17846512417433682361
1813 80 16805324396948199454
18608769 82 18335704996871533179
19377110 9 17561370552211205027
20028762 73 18201999902513234558
20157964 124 18272089400922890110
20511986 3 18340192046945374443
21033648 29 17603577504803281613
21267235 1 18409176493109238123
21279426 13 18263077725890214356
21859007 373 17677318403951279781
23402539 116 18343298172110834223
23559900 14 18338514243651409817
23569917 315 18413395319120565743
23569943 247 17626682496527517886
2838139 119 18410287026039944189
3004659 81 18113340808224260244
3009799 131 18259701182143512893
335352 9 18408605867970040526
34797466 226 17346885554658238708
350125 39 18335139787126796092
3545911 37 18409450279988740527
3633792 109 18339637846584023229
404807 14 17333378900235997426
4073 2 17895479249396590794
4093350 32 17274829021160722119
4325135 7 17704352173404717109
4340502 62 18408603660435964878
5104073 3 18408612447822878787
5283173 99 18114739331270283669
59755656 215 18408325458604382382
59755656 520 16443065028269925859
6086070 43 17489019486888737051

> <PUBCHEM_SHAPE_MULTIPOLES>
632.1
17.01
2.15
1.38
4.33
0.02
0.2
1.07
-0.55
-0.95
-0.12
0
-0.07
0

> <PUBCHEM_SHAPE_SELFOVERLAP>
1332.687

> <PUBCHEM_SHAPE_VOLUME>
352.9

> <PUBCHEM_COORDINATE_TYPE>
2
5
10

$$$$
