179482
  -OEChem-09292002463D

 82 86  0     1  0  0  0  0  0999 V2000
   -5.3377   -1.3580    1.7885 O   0  0  0  0  0  0  0  0  0  0  0  0
   -5.4156   -3.1769   -0.2842 O   0  0  0  0  0  0  0  0  0  0  0  0
    4.6056    2.4422   -1.2713 O   0  0  0  0  0  0  0  0  0  0  0  0
    3.4301    0.6426   -2.0500 O   0  0  0  0  0  0  0  0  0  0  0  0
   -0.6613    1.0630   -0.0939 C   0  0  2  0  0  0  0  0  0  0  0  0
   -1.3714   -0.3326   -0.2811 C   0  0  1  0  0  0  0  0  0  0  0  0
   -2.9154   -0.3208   -0.6881 C   0  0  2  0  0  0  0  0  0  0  0  0
    0.7666    0.8201    0.6731 C   0  0  1  0  0  0  0  0  0  0  0  0
   -3.6490    0.6393    0.3219 C   0  0  1  0  0  0  0  0  0  0  0  0
   -1.5788    2.0195    0.7198 C   0  0  0  0  0  0  0  0  0  0  0  0
   -3.0404    2.0545    0.2667 C   0  0  0  0  0  0  0  0  0  0  0  0
    1.5586   -0.3569    0.0478 C   0  0  0  0  0  0  0  0  0  0  0  0
   -5.2228    0.5880    0.3204 C   0  0  0  0  0  0  0  0  0  0  0  0
    3.0405   -0.4887    0.4586 C   0  0  2  0  0  0  0  0  0  0  0  0
   -0.4930   -1.2681   -1.1354 C   0  0  0  0  0  0  0  0  0  0  0  0
   -3.4934   -1.7587   -0.4996 C   0  0  0  0  0  0  0  0  0  0  0  0
    1.6282    2.1225    0.6274 C   0  0  0  0  0  0  0  0  0  0  0  0
    3.8112    0.8469    0.3165 C   0  0  1  0  0  0  0  0  0  0  0  0
   -0.4075    1.7383   -1.4753 C   0  0  0  0  0  0  0  0  0  0  0  0
    3.0784    1.9594    1.0899 C   0  0  0  0  0  0  0  0  0  0  0  0
   -5.6778   -0.8941    0.4745 C   0  0  1  0  0  0  0  0  0  0  0  0
   -3.1356    0.0697   -2.1721 C   0  0  0  0  0  0  0  0  0  0  0  0
   -5.0244   -1.8282   -0.5469 C   0  0  2  0  0  0  0  0  0  0  0  0
    0.9587   -1.2474   -0.7654 C   0  0  0  0  0  0  0  0  0  0  0  0
    0.5533    0.4642    2.1767 C   0  0  0  0  0  0  0  0  0  0  0  0
    3.8335   -1.6567   -0.1842 C   0  0  0  0  0  0  0  0  0  0  0  0
    5.2471    0.7142    0.8676 C   0  0  0  0  0  0  0  0  0  0  0  0
    5.2861   -1.7960    0.3343 C   0  0  0  0  0  0  0  0  0  0  0  0
   -5.8672    1.2188   -0.9285 C   0  0  0  0  0  0  0  0  0  0  0  0
   -5.7727    1.3862    1.5358 C   0  0  0  0  0  0  0  0  0  0  0  0
    6.0213   -0.4454    0.2373 C   0  0  0  0  0  0  0  0  0  0  0  0
    3.9188    1.2828   -1.1314 C   0  0  0  0  0  0  0  0  0  0  0  0
    5.2992   -2.3135    1.7869 C   0  0  0  0  0  0  0  0  0  0  0  0
    6.0267   -2.8301   -0.5364 C   0  0  0  0  0  0  0  0  0  0  0  0
   -1.3802   -0.7901    0.7179 H   0  0  0  0  0  0  0  0  0  0  0  0
   -3.3777    0.2582    1.3206 H   0  0  0  0  0  0  0  0  0  0  0  0
   -1.1780    3.0402    0.7032 H   0  0  0  0  0  0  0  0  0  0  0  0
   -1.6029    1.7245    1.7726 H   0  0  0  0  0  0  0  0  0  0  0  0
   -3.5675    2.7290    0.9486 H   0  0  0  0  0  0  0  0  0  0  0  0
   -3.1263    2.5059   -0.7248 H   0  0  0  0  0  0  0  0  0  0  0  0
    3.0096   -0.7280    1.5292 H   0  0  0  0  0  0  0  0  0  0  0  0
   -0.5537   -1.0322   -2.2008 H   0  0  0  0  0  0  0  0  0  0  0  0
   -0.8447   -2.2997   -1.0208 H   0  0  0  0  0  0  0  0  0  0  0  0
   -3.1521   -2.1800    0.4559 H   0  0  0  0  0  0  0  0  0  0  0  0
   -3.0942   -2.4365   -1.2655 H   0  0  0  0  0  0  0  0  0  0  0  0
    1.1557    2.9042    1.2351 H   0  0  0  0  0  0  0  0  0  0  0  0
    1.6803    2.5240   -0.3877 H   0  0  0  0  0  0  0  0  0  0  0  0
   -0.1120    2.7872   -1.3621 H   0  0  0  0  0  0  0  0  0  0  0  0
    0.3761    1.2357   -2.0499 H   0  0  0  0  0  0  0  0  0  0  0  0
   -1.2932    1.7719   -2.1041 H   0  0  0  0  0  0  0  0  0  0  0  0
    3.5904    2.9239    0.9791 H   0  0  0  0  0  0  0  0  0  0  0  0
    3.0948    1.7406    2.1649 H   0  0  0  0  0  0  0  0  0  0  0  0
   -6.7699   -0.9675    0.3991 H   0  0  0  0  0  0  0  0  0  0  0  0
   -2.3240   -0.2634   -2.8210 H   0  0  0  0  0  0  0  0  0  0  0  0
   -4.0277   -0.3900   -2.6025 H   0  0  0  0  0  0  0  0  0  0  0  0
   -3.2540    1.1438   -2.3216 H   0  0  0  0  0  0  0  0  0  0  0  0
   -5.3869   -1.5991   -1.5522 H   0  0  0  0  0  0  0  0  0  0  0  0
    1.5273   -2.0609   -1.2048 H   0  0  0  0  0  0  0  0  0  0  0  0
   -0.1328   -0.3753    2.3168 H   0  0  0  0  0  0  0  0  0  0  0  0
    1.4826    0.1834    2.6814 H   0  0  0  0  0  0  0  0  0  0  0  0
    0.1676    1.3167    2.7449 H   0  0  0  0  0  0  0  0  0  0  0  0
    3.3109   -2.6008    0.0232 H   0  0  0  0  0  0  0  0  0  0  0  0
    3.8495   -1.5616   -1.2758 H   0  0  0  0  0  0  0  0  0  0  0  0
    5.2091    0.5672    1.9544 H   0  0  0  0  0  0  0  0  0  0  0  0
    5.8210    1.6378    0.7198 H   0  0  0  0  0  0  0  0  0  0  0  0
   -6.9557    1.2839   -0.8078 H   0  0  0  0  0  0  0  0  0  0  0  0
   -5.7006    0.6454   -1.8394 H   0  0  0  0  0  0  0  0  0  0  0  0
   -5.5018    2.2367   -1.0988 H   0  0  0  0  0  0  0  0  0  0  0  0
   -6.8404    1.1849    1.6842 H   0  0  0  0  0  0  0  0  0  0  0  0
   -5.6727    2.4673    1.3929 H   0  0  0  0  0  0  0  0  0  0  0  0
   -5.2542    1.1245    2.4646 H   0  0  0  0  0  0  0  0  0  0  0  0
    6.2156   -0.2071   -0.8167 H   0  0  0  0  0  0  0  0  0  0  0  0
    7.0067   -0.5171    0.7153 H   0  0  0  0  0  0  0  0  0  0  0  0
   -5.6303   -2.2830    1.8547 H   0  0  0  0  0  0  0  0  0  0  0  0
    4.7904   -3.2813    1.8632 H   0  0  0  0  0  0  0  0  0  0  0  0
    6.3265   -2.4532    2.1431 H   0  0  0  0  0  0  0  0  0  0  0  0
    4.8059   -1.6296    2.4829 H   0  0  0  0  0  0  0  0  0  0  0  0
    7.0622   -2.9603   -0.2021 H   0  0  0  0  0  0  0  0  0  0  0  0
    5.5353   -3.8087   -0.4928 H   0  0  0  0  0  0  0  0  0  0  0  0
    6.0543   -2.5190   -1.5868 H   0  0  0  0  0  0  0  0  0  0  0  0
   -6.3867   -3.2120   -0.3223 H   0  0  0  0  0  0  0  0  0  0  0  0
    4.6702    2.7185   -2.2102 H   0  0  0  0  0  0  0  0  0  0  0  0
  1 21  1  0  0  0  0
  1 74  1  0  0  0  0
  2 23  1  0  0  0  0
  2 81  1  0  0  0  0
  3 32  1  0  0  0  0
  3 82  1  0  0  0  0
  4 32  2  0  0  0  0
  5  6  1  0  0  0  0
  5  8  1  0  0  0  0
  5 10  1  0  0  0  0
  5 19  1  0  0  0  0
  6  7  1  0  0  0  0
  6 15  1  0  0  0  0
  6 35  1  0  0  0  0
  7  9  1  0  0  0  0
  7 16  1  0  0  0  0
  7 22  1  0  0  0  0
  8 12  1  0  0  0  0
  8 17  1  0  0  0  0
  8 25  1  0  0  0  0
  9 11  1  0  0  0  0
  9 13  1  0  0  0  0
  9 36  1  0  0  0  0
 10 11  1  0  0  0  0
 10 37  1  0  0  0  0
 10 38  1  0  0  0  0
 11 39  1  0  0  0  0
 11 40  1  0  0  0  0
 12 14  1  0  0  0  0
 12 24  2  0  0  0  0
 13 21  1  0  0  0  0
 13 29  1  0  0  0  0
 13 30  1  0  0  0  0
 14 18  1  0  0  0  0
 14 26  1  0  0  0  0
 14 41  1  0  0  0  0
 15 24  1  0  0  0  0
 15 42  1  0  0  0  0
 15 43  1  0  0  0  0
 16 23  1  0  0  0  0
 16 44  1  0  0  0  0
 16 45  1  0  0  0  0
 17 20  1  0  0  0  0
 17 46  1  0  0  0  0
 17 47  1  0  0  0  0
 18 20  1  0  0  0  0
 18 27  1  0  0  0  0
 18 32  1  0  0  0  0
 19 48  1  0  0  0  0
 19 49  1  0  0  0  0
 19 50  1  0  0  0  0
 20 51  1  0  0  0  0
 20 52  1  0  0  0  0
 21 23  1  0  0  0  0
 21 53  1  0  0  0  0
 22 54  1  0  0  0  0
 22 55  1  0  0  0  0
 22 56  1  0  0  0  0
 23 57  1  0  0  0  0
 24 58  1  0  0  0  0
 25 59  1  0  0  0  0
 25 60  1  0  0  0  0
 25 61  1  0  0  0  0
 26 28  1  0  0  0  0
 26 62  1  0  0  0  0
 26 63  1  0  0  0  0
 27 31  1  0  0  0  0
 27 64  1  0  0  0  0
 27 65  1  0  0  0  0
 28 31  1  0  0  0  0
 28 33  1  0  0  0  0
 28 34  1  0  0  0  0
 29 66  1  0  0  0  0
 29 67  1  0  0  0  0
 29 68  1  0  0  0  0
 30 69  1  0  0  0  0
 30 70  1  0  0  0  0
 30 71  1  0  0  0  0
 31 72  1  0  0  0  0
 31 73  1  0  0  0  0
 33 75  1  0  0  0  0
 33 76  1  0  0  0  0
 33 77  1  0  0  0  0
 34 78  1  0  0  0  0
 34 79  1  0  0  0  0
 34 80  1  0  0  0  0
M  END
> <PUBCHEM_COMPOUND_CID>
179482

> <PUBCHEM_CONFORMER_RMSD>
0.8

> <PUBCHEM_CONFORMER_DIVERSEORDER>
1
4
3
2

> <PUBCHEM_MMFF94_PARTIAL_CHARGES>
17
1 -0.68
12 -0.28
14 0.14
15 0.14
18 0.06
2 -0.68
21 0.28
23 0.28
24 -0.29
3 -0.65
32 0.66
4 -0.57
58 0.15
74 0.4
8 0.14
81 0.4
82 0.5

> <PUBCHEM_EFFECTIVE_ROTOR_COUNT>
3.6

> <PUBCHEM_PHARMACOPHORE_FEATURES>
14
1 1 acceptor
1 1 donor
1 2 acceptor
1 2 donor
1 3 acceptor
1 4 acceptor
3 13 29 30 hydrophobe
3 28 33 34 hydrophobe
3 3 4 32 anion
6 14 18 26 27 28 31 rings
6 5 6 7 9 10 11 rings
6 5 6 8 12 15 24 rings
6 7 9 13 16 21 23 rings
6 8 12 14 17 18 20 rings

> <PUBCHEM_HEAVY_ATOM_COUNT>
34

> <PUBCHEM_ATOM_DEF_STEREO_COUNT>
8

> <PUBCHEM_ATOM_UDEF_STEREO_COUNT>
1

> <PUBCHEM_BOND_DEF_STEREO_COUNT>
0

> <PUBCHEM_BOND_UDEF_STEREO_COUNT>
0

> <PUBCHEM_ISOTOPIC_ATOM_COUNT>
0

> <PUBCHEM_COMPONENT_COUNT>
1

> <PUBCHEM_CACTVS_TAUTO_COUNT>
1

> <PUBCHEM_CONFORMER_ID>
0002BD1A00000001

> <PUBCHEM_MMFF94_ENERGY>
149.5528

> <PUBCHEM_FEATURE_SELFOVERLAP>
71.164

> <PUBCHEM_SHAPE_FINGERPRINT>
11135609 12 18059298656731901390
11578080 2 16484702528506981826
117089 54 18337679714680167667
11756154 67 17766849325769024846
12107183 9 18199756843131563369
12107698 1 17821727187728713172
12166972 35 18113622283285588116
12236239 1 18333450953961273468
12403259 415 12685093704599694591
12422481 6 18059857229374779815
12616971 3 18130782356569272558
12633257 1 17131828802415887485
12788726 201 17489599943477543016
13073987 5 18272085045345958826
13224815 77 18343016705191340629
13533116 47 18334576858795735264
13782708 43 17458059356980640474
14341114 176 18413108350895227864
14856354 85 18341620364685406535
14955137 171 17846214415374895522
15131766 46 13108665175445917682
15142383 8 18340200795899277404
15183329 4 18343582932120263144
15238133 3 17346320349762786369
15361156 5 18261120672459966719
15788980 27 18334293158456305045
15799311 1 18339092582520131731
1601671 61 18131355219323257925
17349148 13 12757149069670888877
17844677 252 17749107777213130277
17857418 61 18341890783725057545
1813 80 17749103409052146148
1979834 28 16988848254922345758
19958102 18 17312820493849225195
21130935 74 18131067134555896338
21267235 1 18271528598933398542
22950370 63 18410856585641909841
23522609 53 18196119761367079441
23559900 14 18342164584033489113
23569914 152 13699752605577935059
23569943 247 17678166092941142835
3004659 81 18411418385039929026
338550 245 18411699889801946574
3411729 13 17058913650234890048
34797466 226 16226334810201905789
350125 39 18412824668795956932
3680242 22 18201445761378779834
392239 28 18343309171506489003
394071 54 14764339479585143834
4073 2 18261393407336784842
4098825 35 18040154011634515500
4144715 1 18270128902649673267
439807 62 18337110163799108571
460360 51 17915757387285527248
46194498 28 17821728343380715380
5104073 3 18202278121629772323
6081469 158 18335412470885525495
6086070 43 16773214246554740537
7495541 125 18341893008697718400

> <PUBCHEM_SHAPE_MULTIPOLES>
676.23
15.89
2.8
1.62
1.58
0.82
-0.03
6.34
2.29
-0.69
0.04
0.04
-0.22
-0.86

> <PUBCHEM_SHAPE_SELFOVERLAP>
1440.871

> <PUBCHEM_SHAPE_VOLUME>
371.5

> <PUBCHEM_COORDINATE_TYPE>
2
5
10

$$$$
