76972524
  -OEChem-09292003043D

105110  0     1  0  0  0  0  0999 V2000
   -8.6268    0.9383   -0.4301 O   0  0  0  0  0  0  0  0  0  0  0  0
   -7.6472   -1.3446   -1.7629 O   0  0  0  0  0  0  0  0  0  0  0  0
    0.6969   -3.9929    1.5535 O   0  0  0  0  0  0  0  0  0  0  0  0
   -7.6985    3.4610   -0.0135 O   0  0  0  0  0  0  0  0  0  0  0  0
    3.7139    0.2856    0.7726 O   0  0  0  0  0  0  0  0  0  0  0  0
    2.4363   -0.0848   -1.1161 O   0  0  0  0  0  0  0  0  0  0  0  0
    5.3804    0.8712   -0.7519 O   0  0  0  0  0  0  0  0  0  0  0  0
    3.9305    2.8456    1.9591 O   0  0  0  0  0  0  0  0  0  0  0  0
    6.6188    3.9980    1.6054 O   0  0  0  0  0  0  0  0  0  0  0  0
    7.4078    3.8921   -1.1735 O   0  0  0  0  0  0  0  0  0  0  0  0
    6.2673    0.4253   -3.3150 O   0  0  0  0  0  0  0  0  0  0  0  0
   -1.9335    0.3265    0.4328 C   0  0  2  0  0  0  0  0  0  0  0  0
   -3.0122   -0.4815   -0.3844 C   0  0  1  0  0  0  0  0  0  0  0  0
   -4.3525    0.2870   -0.7852 C   0  0  2  0  0  0  0  0  0  0  0  0
   -0.8296   -0.7328    1.0201 C   0  0  1  0  0  0  0  0  0  0  0  0
   -4.9265    0.9362    0.5273 C   0  0  1  0  0  0  0  0  0  0  0  0
   -2.6306    1.1126    1.5783 C   0  0  0  0  0  0  0  0  0  0  0  0
   -0.2759   -1.6079   -0.1185 C   0  0  0  0  0  0  0  0  0  0  0  0
   -3.8865    1.8832    1.1620 C   0  0  0  0  0  0  0  0  0  0  0  0
   -6.3886    1.5143    0.4356 C   0  0  2  0  0  0  0  0  0  0  0  0
    1.1253   -2.2321   -0.0439 C   0  0  1  0  0  0  0  0  0  0  0  0
   -2.3585   -1.2732   -1.5375 C   0  0  0  0  0  0  0  0  0  0  0  0
   -5.3859   -0.7618   -1.2882 C   0  0  0  0  0  0  0  0  0  0  0  0
    0.3139    0.0262    1.7514 C   0  0  0  0  0  0  0  0  0  0  0  0
    2.1556   -1.4803    0.8489 C   0  0  1  0  0  0  0  0  0  0  0  0
   -1.2201    1.3766   -0.4728 C   0  0  0  0  0  0  0  0  0  0  0  0
    1.5301   -0.8347    2.0945 C   0  0  0  0  0  0  0  0  0  0  0  0
   -7.3276    0.4117   -0.1439 C   0  0  2  0  0  0  0  0  0  0  0  0
   -0.9981   -1.8238   -1.2370 C   0  0  0  0  0  0  0  0  0  0  0  0
   -6.8115   -0.2297   -1.4320 C   0  0  2  0  0  0  0  0  0  0  0  0
   -4.1368    1.3129   -1.9263 C   0  0  0  0  0  0  0  0  0  0  0  0
   -1.4686   -1.7045    2.0578 C   0  0  0  0  0  0  0  0  0  0  0  0
    1.1009   -3.7671    0.2036 C   0  0  1  0  0  0  0  0  0  0  0  0
    3.3310   -2.3951    1.2828 C   0  0  0  0  0  0  0  0  0  0  0  0
    2.4978   -4.4255   -0.0526 C   0  0  0  0  0  0  0  0  0  0  0  0
   -6.4928    2.8231   -0.3735 C   0  0  0  0  0  0  0  0  0  0  0  0
   -6.8974    1.8553    1.8653 C   0  0  0  0  0  0  0  0  0  0  0  0
    3.6642   -3.4378    0.2186 C   0  0  0  0  0  0  0  0  0  0  0  0
    2.7655   -0.3544    0.0312 C   0  0  0  0  0  0  0  0  0  0  0  0
    2.6645   -5.6255    0.9078 C   0  0  0  0  0  0  0  0  0  0  0  0
    2.6200   -4.9727   -1.4906 C   0  0  0  0  0  0  0  0  0  0  0  0
    4.3711    1.3724    0.1215 C   0  0  2  0  0  0  0  0  0  0  0  0
    4.9891    2.2628    1.1996 C   0  0  1  0  0  0  0  0  0  0  0  0
    5.8417    3.3720    0.5833 C   0  0  2  0  0  0  0  0  0  0  0  0
    6.0617    1.9112   -1.4558 C   0  0  1  0  0  0  0  0  0  0  0  0
    6.8029    2.8129   -0.4659 C   0  0  1  0  0  0  0  0  0  0  0  0
    7.0186    1.2486   -2.4418 C   0  0  0  0  0  0  0  0  0  0  0  0
   -3.3731   -1.2528    0.3098 H   0  0  0  0  0  0  0  0  0  0  0  0
   -5.0224    0.0995    1.2401 H   0  0  0  0  0  0  0  0  0  0  0  0
   -1.9270    1.8145    2.0422 H   0  0  0  0  0  0  0  0  0  0  0  0
   -2.9486    0.4378    2.3764 H   0  0  0  0  0  0  0  0  0  0  0  0
   -4.2900    2.3451    2.0685 H   0  0  0  0  0  0  0  0  0  0  0  0
   -3.6210    2.7106    0.4993 H   0  0  0  0  0  0  0  0  0  0  0  0
    1.5026   -2.1729   -1.0773 H   0  0  0  0  0  0  0  0  0  0  0  0
   -2.2514   -0.6594   -2.4350 H   0  0  0  0  0  0  0  0  0  0  0  0
   -3.0047   -2.1156   -1.8109 H   0  0  0  0  0  0  0  0  0  0  0  0
   -5.4081   -1.6217   -0.6038 H   0  0  0  0  0  0  0  0  0  0  0  0
   -5.0699   -1.1762   -2.2546 H   0  0  0  0  0  0  0  0  0  0  0  0
   -0.0685    0.4652    2.6815 H   0  0  0  0  0  0  0  0  0  0  0  0
    0.6810    0.8652    1.1560 H   0  0  0  0  0  0  0  0  0  0  0  0
   -0.5873    0.9177   -1.2373 H   0  0  0  0  0  0  0  0  0  0  0  0
   -0.5878    2.0524    0.1117 H   0  0  0  0  0  0  0  0  0  0  0  0
   -1.9132    2.0356   -0.9886 H   0  0  0  0  0  0  0  0  0  0  0  0
    2.2548   -0.2090    2.6314 H   0  0  0  0  0  0  0  0  0  0  0  0
    1.2437   -1.6084    2.8152 H   0  0  0  0  0  0  0  0  0  0  0  0
   -7.4729   -0.3832    0.6004 H   0  0  0  0  0  0  0  0  0  0  0  0
   -0.5732   -2.4367   -2.0300 H   0  0  0  0  0  0  0  0  0  0  0  0
   -6.9034    0.4696   -2.2684 H   0  0  0  0  0  0  0  0  0  0  0  0
   -3.8549    2.3029   -1.5657 H   0  0  0  0  0  0  0  0  0  0  0  0
   -5.0375    1.4676   -2.5248 H   0  0  0  0  0  0  0  0  0  0  0  0
   -3.3782    0.9977   -2.6444 H   0  0  0  0  0  0  0  0  0  0  0  0
   -1.9350   -1.1787    2.8937 H   0  0  0  0  0  0  0  0  0  0  0  0
   -0.7297   -2.3527    2.5292 H   0  0  0  0  0  0  0  0  0  0  0  0
   -2.2159   -2.3687    1.6138 H   0  0  0  0  0  0  0  0  0  0  0  0
    0.3575   -4.2549   -0.4398 H   0  0  0  0  0  0  0  0  0  0  0  0
    3.0729   -2.9201    2.2114 H   0  0  0  0  0  0  0  0  0  0  0  0
    4.2433   -1.8358    1.5187 H   0  0  0  0  0  0  0  0  0  0  0  0
   -6.5063    2.6550   -1.4514 H   0  0  0  0  0  0  0  0  0  0  0  0
   -5.6757    3.5102   -0.1371 H   0  0  0  0  0  0  0  0  0  0  0  0
   -7.9755    2.0400    1.9113 H   0  0  0  0  0  0  0  0  0  0  0  0
   -6.4041    2.7434    2.2749 H   0  0  0  0  0  0  0  0  0  0  0  0
   -6.7005    1.0243    2.5531 H   0  0  0  0  0  0  0  0  0  0  0  0
    3.9300   -2.9106   -0.7074 H   0  0  0  0  0  0  0  0  0  0  0  0
    4.5680   -3.9850    0.5152 H   0  0  0  0  0  0  0  0  0  0  0  0
    2.4861   -4.1723   -2.2264 H   0  0  0  0  0  0  0  0  0  0  0  0
    3.5855   -6.1789    0.6877 H   0  0  0  0  0  0  0  0  0  0  0  0
    3.6033   -5.4247   -1.6626 H   0  0  0  0  0  0  0  0  0  0  0  0
    2.7257   -5.3163    1.9569 H   0  0  0  0  0  0  0  0  0  0  0  0
    1.8596   -5.7363   -1.6881 H   0  0  0  0  0  0  0  0  0  0  0  0
    1.8318   -6.3312    0.8065 H   0  0  0  0  0  0  0  0  0  0  0  0
   -9.0776    1.1024    0.4144 H   0  0  0  0  0  0  0  0  0  0  0  0
   -7.3241   -1.7142   -2.6025 H   0  0  0  0  0  0  0  0  0  0  0  0
   -0.2539   -4.1954    1.5394 H   0  0  0  0  0  0  0  0  0  0  0  0
   -7.7517    4.2878   -0.5224 H   0  0  0  0  0  0  0  0  0  0  0  0
    3.6328    1.9490   -0.4536 H   0  0  0  0  0  0  0  0  0  0  0  0
    5.5851    1.6624    1.8971 H   0  0  0  0  0  0  0  0  0  0  0  0
    5.2103    4.1592    0.1548 H   0  0  0  0  0  0  0  0  0  0  0  0
    5.3225    2.4831   -2.0333 H   0  0  0  0  0  0  0  0  0  0  0  0
    7.6069    2.2559    0.0306 H   0  0  0  0  0  0  0  0  0  0  0  0
    3.3855    3.3801    1.3567 H   0  0  0  0  0  0  0  0  0  0  0  0
    7.7377    0.6099   -1.9181 H   0  0  0  0  0  0  0  0  0  0  0  0
    7.5596    1.9905   -3.0369 H   0  0  0  0  0  0  0  0  0  0  0  0
    7.1790    3.3188    2.0183 H   0  0  0  0  0  0  0  0  0  0  0  0
    6.7038    4.3848   -1.6289 H   0  0  0  0  0  0  0  0  0  0  0  0
    6.8958    0.0106   -3.9303 H   0  0  0  0  0  0  0  0  0  0  0  0
  1 28  1  0  0  0  0
  1 91  1  0  0  0  0
  2 30  1  0  0  0  0
  2 92  1  0  0  0  0
  3 33  1  0  0  0  0
  3 93  1  0  0  0  0
  4 36  1  0  0  0  0
  4 94  1  0  0  0  0
  5 39  1  0  0  0  0
  5 42  1  0  0  0  0
  6 39  2  0  0  0  0
  7 42  1  0  0  0  0
  7 45  1  0  0  0  0
  8 43  1  0  0  0  0
  8100  1  0  0  0  0
  9 44  1  0  0  0  0
  9103  1  0  0  0  0
 10 46  1  0  0  0  0
 10104  1  0  0  0  0
 11 47  1  0  0  0  0
 11105  1  0  0  0  0
 12 13  1  0  0  0  0
 12 15  1  0  0  0  0
 12 17  1  0  0  0  0
 12 26  1  0  0  0  0
 13 14  1  0  0  0  0
 13 22  1  0  0  0  0
 13 48  1  0  0  0  0
 14 16  1  0  0  0  0
 14 23  1  0  0  0  0
 14 31  1  0  0  0  0
 15 18  1  0  0  0  0
 15 24  1  0  0  0  0
 15 32  1  0  0  0  0
 16 19  1  0  0  0  0
 16 20  1  0  0  0  0
 16 49  1  0  0  0  0
 17 19  1  0  0  0  0
 17 50  1  0  0  0  0
 17 51  1  0  0  0  0
 18 21  1  0  0  0  0
 18 29  2  0  0  0  0
 19 52  1  0  0  0  0
 19 53  1  0  0  0  0
 20 28  1  0  0  0  0
 20 36  1  0  0  0  0
 20 37  1  0  0  0  0
 21 25  1  0  0  0  0
 21 33  1  0  0  0  0
 21 54  1  0  0  0  0
 22 29  1  0  0  0  0
 22 55  1  0  0  0  0
 22 56  1  0  0  0  0
 23 30  1  0  0  0  0
 23 57  1  0  0  0  0
 23 58  1  0  0  0  0
 24 27  1  0  0  0  0
 24 59  1  0  0  0  0
 24 60  1  0  0  0  0
 25 27  1  0  0  0  0
 25 34  1  0  0  0  0
 25 39  1  0  0  0  0
 26 61  1  0  0  0  0
 26 62  1  0  0  0  0
 26 63  1  0  0  0  0
 27 64  1  0  0  0  0
 27 65  1  0  0  0  0
 28 30  1  0  0  0  0
 28 66  1  0  0  0  0
 29 67  1  0  0  0  0
 30 68  1  0  0  0  0
 31 69  1  0  0  0  0
 31 70  1  0  0  0  0
 31 71  1  0  0  0  0
 32 72  1  0  0  0  0
 32 73  1  0  0  0  0
 32 74  1  0  0  0  0
 33 35  1  0  0  0  0
 33 75  1  0  0  0  0
 34 38  1  0  0  0  0
 34 76  1  0  0  0  0
 34 77  1  0  0  0  0
 35 38  1  0  0  0  0
 35 40  1  0  0  0  0
 35 41  1  0  0  0  0
 36 78  1  0  0  0  0
 36 79  1  0  0  0  0
 37 80  1  0  0  0  0
 37 81  1  0  0  0  0
 37 82  1  0  0  0  0
 38 83  1  0  0  0  0
 38 84  1  0  0  0  0
 40 86  1  0  0  0  0
 40 88  1  0  0  0  0
 40 90  1  0  0  0  0
 41 85  1  0  0  0  0
 41 87  1  0  0  0  0
 41 89  1  0  0  0  0
 42 43  1  0  0  0  0
 42 95  1  0  0  0  0
 43 44  1  0  0  0  0
 43 96  1  0  0  0  0
 44 46  1  0  0  0  0
 44 97  1  0  0  0  0
 45 46  1  0  0  0  0
 45 47  1  0  0  0  0
 45 98  1  0  0  0  0
 46 99  1  0  0  0  0
 47101  1  0  0  0  0
 47102  1  0  0  0  0
M  END
> <PUBCHEM_COMPOUND_CID>
76972524

> <PUBCHEM_CONFORMER_RMSD>
1.2

> <PUBCHEM_CONFORMER_DIVERSEORDER>
1
3
13
4
9
6
5
8
11
12
10
7
2

> <PUBCHEM_MMFF94_PARTIAL_CHARGES>
37
1 -0.68
10 -0.68
100 0.4
103 0.4
104 0.4
105 0.4
11 -0.68
15 0.14
18 -0.28
2 -0.68
21 0.14
22 0.14
25 0.06
28 0.28
29 -0.29
3 -0.68
30 0.28
33 0.28
36 0.28
39 0.66
4 -0.68
42 0.56
43 0.28
44 0.28
45 0.28
46 0.28
47 0.28
5 -0.43
6 -0.57
67 0.15
7 -0.56
8 -0.68
9 -0.68
91 0.4
92 0.4
93 0.4
94 0.4

> <PUBCHEM_EFFECTIVE_ROTOR_COUNT>
8.8

> <PUBCHEM_PHARMACOPHORE_FEATURES>
25
1 1 acceptor
1 1 donor
1 10 acceptor
1 10 donor
1 11 acceptor
1 11 donor
1 2 acceptor
1 2 donor
1 3 acceptor
1 3 donor
1 4 acceptor
1 4 donor
1 6 acceptor
1 7 acceptor
1 8 acceptor
1 8 donor
1 9 acceptor
1 9 donor
3 35 40 41 hydrophobe
6 12 13 14 16 17 19 rings
6 12 13 15 18 22 29 rings
6 14 16 20 23 28 30 rings
6 15 18 21 24 25 27 rings
6 21 25 33 34 35 38 rings
6 7 42 43 44 45 46 rings

> <PUBCHEM_HEAVY_ATOM_COUNT>
47

> <PUBCHEM_ATOM_DEF_STEREO_COUNT>
16

> <PUBCHEM_ATOM_UDEF_STEREO_COUNT>
0

> <PUBCHEM_BOND_DEF_STEREO_COUNT>
0

> <PUBCHEM_BOND_UDEF_STEREO_COUNT>
0

> <PUBCHEM_ISOTOPIC_ATOM_COUNT>
0

> <PUBCHEM_COMPONENT_COUNT>
1

> <PUBCHEM_CACTVS_TAUTO_COUNT>
1

> <PUBCHEM_CONFORMER_ID>
049681EC00000001

> <PUBCHEM_MMFF94_ENERGY>
204.2135

> <PUBCHEM_FEATURE_SELFOVERLAP>
126.984

> <PUBCHEM_SHAPE_FINGERPRINT>
10554248 39 17985248700474203325
10673678 19 18410577292635127906
10675989 125 18413670193643794784
10721379 63 18269840822540996398
11062273 23 17828485009568877674
11135609 187 18411975892837575473
11181472 205 18129384783830522961
11445158 3 18054212246452421046
11578080 2 18260843587093625739
11828042 200 17983001552179879871
1200032 147 18260544554822644616
12124843 1 18059584619781118660
12440610 7 18113628892845040043
12522641 126 18339359665320182182
13383668 362 11026097801064326828
13726171 33 17704079516713218851
13782708 43 17678459659020872283
14118638 360 18342168978322648431
14394314 77 18413392021487632481
14664723 55 18189344622968247908
15064981 194 17829336027315493436
15082195 135 18342178817576466906
15131766 46 18412252940141054893
15198563 99 17550103010501391582
15276724 80 18339638920389741981
15324884 4 17679338262388317994
15347591 1 18340202983013310807
15439362 3 18409450293913314358
15484559 13 18343866624249976414
15513586 35 16303460234575760332
15685185 35 18192712465047844916
15840311 113 18117560631474550373
16994733 274 18334289869071285889
17899979 129 18410577275639835850
18365409 1 18124593342934812230
18393751 57 17095519617252634723
19304671 126 17917717915909410660
19309040 13 18413669119047708119
21033648 29 18265335187304732536
23522609 53 17845106090822680785
27425 322 18270119162286338668
3986486 107 18130802183025353164
4073 2 18334576837717064275
42767 28 17775571969990306240
44317340 157 18265049142171244865
4516262 110 18409721876804850253
46194498 28 18190737531552387878
4760202 70 18341883118527421639
6057620 51 18340474678181008551
6697151 62 17467602941985323319
9849439 229 18338791321367131776

> <PUBCHEM_SHAPE_MULTIPOLES>
902.68
21.57
5.9
2.14
16.89
5.33
-0.48
-25.29
-7.83
-11.65
0.84
-1.47
-0.29
-1.66

> <PUBCHEM_SHAPE_SELFOVERLAP>
1919.252

> <PUBCHEM_SHAPE_VOLUME>
489.4

> <PUBCHEM_COORDINATE_TYPE>
2
5
10

$$$$
