11600642
  -OEChem-09292003283D

 24 24  0     1  0  0  0  0  0999 V2000
   -2.2061    1.5417    0.7649 O   0  0  0  0  0  0  0  0  0  0  0  0
    3.0411   -2.0347    0.3741 O   0  0  0  0  0  0  0  0  0  0  0  0
    4.2938    0.4467    0.3959 O   0  0  0  0  0  0  0  0  0  0  0  0
   -3.4985   -1.6709   -0.1682 O   0  0  0  0  0  0  0  0  0  0  0  0
   -4.5073    0.3365    0.1567 O   0  0  0  0  0  0  0  0  0  0  0  0
   -1.1995    0.0581   -0.8356 C   0  0  0  0  0  0  0  0  0  0  0  0
    0.2525    0.1571   -0.5103 C   0  0  0  0  0  0  0  0  0  0  0  0
   -2.0940    0.1689    0.4099 C   0  0  2  0  0  0  0  0  0  0  0  0
    0.9815   -0.9950   -0.2158 C   0  0  0  0  0  0  0  0  0  0  0  0
    0.8814    1.4022   -0.4996 C   0  0  0  0  0  0  0  0  0  0  0  0
    2.3394   -0.9021    0.0893 C   0  0  0  0  0  0  0  0  0  0  0  0
    2.2392    1.4952   -0.1945 C   0  0  0  0  0  0  0  0  0  0  0  0
    2.9683    0.3429    0.0999 C   0  0  0  0  0  0  0  0  0  0  0  0
   -3.4919   -0.3467    0.1333 C   0  0  0  0  0  0  0  0  0  0  0  0
   -1.3755   -0.8911   -1.3579 H   0  0  0  0  0  0  0  0  0  0  0  0
   -1.4651    0.8410   -1.5591 H   0  0  0  0  0  0  0  0  0  0  0  0
   -1.6843   -0.3767    1.2674 H   0  0  0  0  0  0  0  0  0  0  0  0
    0.4965   -1.9682   -0.2202 H   0  0  0  0  0  0  0  0  0  0  0  0
    0.3249    2.3077   -0.7266 H   0  0  0  0  0  0  0  0  0  0  0  0
    2.7166    2.4715   -0.1896 H   0  0  0  0  0  0  0  0  0  0  0  0
   -2.6870    1.5872    1.6090 H   0  0  0  0  0  0  0  0  0  0  0  0
    3.9627   -1.7845    0.5608 H   0  0  0  0  0  0  0  0  0  0  0  0
    4.5553    1.3827    0.3548 H   0  0  0  0  0  0  0  0  0  0  0  0
   -4.4039   -1.9988   -0.3554 H   0  0  0  0  0  0  0  0  0  0  0  0
  1  8  1  0  0  0  0
  1 21  1  0  0  0  0
  2 11  1  0  0  0  0
  2 22  1  0  0  0  0
  3 13  1  0  0  0  0
  3 23  1  0  0  0  0
  4 14  1  0  0  0  0
  4 24  1  0  0  0  0
  5 14  2  0  0  0  0
  6  7  1  0  0  0  0
  6  8  1  0  0  0  0
  6 15  1  0  0  0  0
  6 16  1  0  0  0  0
  7  9  2  0  0  0  0
  7 10  1  0  0  0  0
  8 14  1  0  0  0  0
  8 17  1  0  0  0  0
  9 11  1  0  0  0  0
  9 18  1  0  0  0  0
 10 12  2  0  0  0  0
 10 19  1  0  0  0  0
 11 13  2  0  0  0  0
 12 13  1  0  0  0  0
 12 20  1  0  0  0  0
M  END
> <PUBCHEM_COMPOUND_CID>
11600642

> <PUBCHEM_CONFORMER_RMSD>
0.6

> <PUBCHEM_CONFORMER_DIVERSEORDER>
1
3
20
8
16
10
12
15
19
6
7
4
14
2
18
5
17
9
13
11

> <PUBCHEM_MMFF94_PARTIAL_CHARGES>
21
1 -0.68
10 -0.15
11 0.08
12 -0.15
13 0.08
14 0.66
18 0.15
19 0.15
2 -0.53
20 0.15
21 0.4
22 0.45
23 0.45
24 0.5
3 -0.53
4 -0.65
5 -0.57
6 0.14
7 -0.14
8 0.34
9 -0.15

> <PUBCHEM_EFFECTIVE_ROTOR_COUNT>
3

> <PUBCHEM_PHARMACOPHORE_FEATURES>
8
1 1 acceptor
1 1 donor
1 2 donor
1 3 donor
1 4 acceptor
1 5 acceptor
3 4 5 14 anion
6 7 9 10 11 12 13 rings

> <PUBCHEM_HEAVY_ATOM_COUNT>
14

> <PUBCHEM_ATOM_DEF_STEREO_COUNT>
1

> <PUBCHEM_ATOM_UDEF_STEREO_COUNT>
0

> <PUBCHEM_BOND_DEF_STEREO_COUNT>
0

> <PUBCHEM_BOND_UDEF_STEREO_COUNT>
0

> <PUBCHEM_ISOTOPIC_ATOM_COUNT>
0

> <PUBCHEM_COMPONENT_COUNT>
1

> <PUBCHEM_CACTVS_TAUTO_COUNT>
18

> <PUBCHEM_CONFORMER_ID>
00B1030200000001

> <PUBCHEM_MMFF94_ENERGY>
24.4442

> <PUBCHEM_FEATURE_SELFOVERLAP>
40.667

> <PUBCHEM_SHAPE_FINGERPRINT>
11471102 22 18334585645850521104
11769659 78 18409726261950400839
11806522 49 18335982059814121430
12251169 10 18411699893653503221
12346645 6 18342739602855288822
14144814 61 18341615892985965545
14251717 144 18334011709207446954
14252887 29 18187368714113852322
14325111 11 18410857685190305037
15375462 478 18273495658793407565
15442244 35 18267024955459309568
15501101 241 18187364337494880428
15775835 57 17775003513556124985
16945 1 18336253614012438524
18522853 276 18343019995052042713
19050596 39 18411984697509469113
200 152 18342447171569824543
20201158 50 18113057146776789186
20279233 1 16732986426833297529
20281407 28 17531251621121690599
20559304 39 18342742926959716904
20645477 70 18335977580453694079
20871998 22 18196373615835838230
21501925 9 18408881832582746848
22445834 79 18411982442366776003
22485316 2 18261107465593851919
23402539 116 17989199374069233389
23402655 69 18409166601957765749
23463225 33 18411139125559351077
26918003 58 18260267477776270211
2748010 2 18048578353930917932
57812782 119 18040433308745905785
581208 293 18259984902945059646
81228 2 16154264988587525349

> <PUBCHEM_SHAPE_MULTIPOLES>
258.77
7.39
1.63
0.75
3.6
0.27
-0.04
0.94
1.23
-0.62
0.08
0.08
-0.08
-0.39

> <PUBCHEM_SHAPE_SELFOVERLAP>
539.015

> <PUBCHEM_SHAPE_VOLUME>
146.7

> <PUBCHEM_COORDINATE_TYPE>
2
5
10

$$$$
