5321954
  -OEChem-09292003243D

 54 57  0     1  0  0  0  0  0999 V2000
    3.1493    0.9957   -0.8678 O   0  0  0  0  0  0  0  0  0  0  0  0
    3.1623   -1.3183   -0.5684 O   0  0  0  0  0  0  0  0  0  0  0  0
    6.7449    1.3977    1.0755 O   0  0  0  0  0  0  0  0  0  0  0  0
    5.0544    3.7100    0.6867 O   0  0  0  0  0  0  0  0  0  0  0  0
    5.1096   -1.0222    1.4634 O   0  0  0  0  0  0  0  0  0  0  0  0
    1.5498    3.1057   -1.6067 O   0  0  0  0  0  0  0  0  0  0  0  0
   -1.4904   -0.4996   -0.0786 O   0  0  0  0  0  0  0  0  0  0  0  0
    0.2155   -5.0328   -0.2658 O   0  0  0  0  0  0  0  0  0  0  0  0
   -2.3357   -4.4841    0.0076 O   0  0  0  0  0  0  0  0  0  0  0  0
   -6.6486    3.1136    0.4880 O   0  0  0  0  0  0  0  0  0  0  0  0
    5.3210    1.3327    0.9812 C   0  0  1  0  0  0  0  0  0  0  0  0
    4.8575    2.4513    0.0478 C   0  0  1  0  0  0  0  0  0  0  0  0
    4.9084   -0.0394    0.4481 C   0  0  2  0  0  0  0  0  0  0  0  0
    3.3765    2.2878   -0.3022 C   0  0  1  0  0  0  0  0  0  0  0  0
    3.4332   -0.0597    0.0477 C   0  0  1  0  0  0  0  0  0  0  0  0
    2.9201    3.3241   -1.3243 C   0  0  0  0  0  0  0  0  0  0  0  0
    1.8943   -1.8020   -0.4368 C   0  0  0  0  0  0  0  0  0  0  0  0
    0.8205   -0.9186   -0.3223 C   0  0  0  0  0  0  0  0  0  0  0  0
    1.6731   -3.1798   -0.4161 C   0  0  0  0  0  0  0  0  0  0  0  0
   -0.4757   -1.4164   -0.1874 C   0  0  0  0  0  0  0  0  0  0  0  0
   -0.6946   -2.7928   -0.1668 C   0  0  0  0  0  0  0  0  0  0  0  0
    0.3776   -3.6805   -0.2809 C   0  0  0  0  0  0  0  0  0  0  0  0
   -2.0712   -3.2902   -0.0215 C   0  0  0  0  0  0  0  0  0  0  0  0
   -2.7902   -0.9651    0.0500 C   0  0  0  0  0  0  0  0  0  0  0  0
   -3.1274   -2.2640    0.0895 C   0  0  0  0  0  0  0  0  0  0  0  0
   -3.8018    0.1045    0.1654 C   0  0  0  0  0  0  0  0  0  0  0  0
   -4.9665   -0.1078    0.9071 C   0  0  0  0  0  0  0  0  0  0  0  0
   -3.5987    1.3334   -0.4673 C   0  0  0  0  0  0  0  0  0  0  0  0
   -5.9221    0.9025    1.0155 C   0  0  0  0  0  0  0  0  0  0  0  0
   -4.5544    2.3438   -0.3589 C   0  0  0  0  0  0  0  0  0  0  0  0
   -5.7161    2.1284    0.3824 C   0  0  0  0  0  0  0  0  0  0  0  0
   -6.3746    4.3421   -0.1842 C   0  0  0  0  0  0  0  0  0  0  0  0
    4.9363    1.4837    1.9974 H   0  0  0  0  0  0  0  0  0  0  0  0
    5.4714    2.4453   -0.8612 H   0  0  0  0  0  0  0  0  0  0  0  0
    5.5432   -0.3243   -0.3993 H   0  0  0  0  0  0  0  0  0  0  0  0
    2.7459    2.3929    0.5912 H   0  0  0  0  0  0  0  0  0  0  0  0
    2.8298    0.0560    0.9608 H   0  0  0  0  0  0  0  0  0  0  0  0
    3.4738    3.2309   -2.2644 H   0  0  0  0  0  0  0  0  0  0  0  0
    3.0357    4.3439   -0.9465 H   0  0  0  0  0  0  0  0  0  0  0  0
    6.9748    2.2841    1.4032 H   0  0  0  0  0  0  0  0  0  0  0  0
    4.5076    3.7275    1.4907 H   0  0  0  0  0  0  0  0  0  0  0  0
    4.5578   -0.7845    2.2280 H   0  0  0  0  0  0  0  0  0  0  0  0
    1.4593    2.1968   -1.9405 H   0  0  0  0  0  0  0  0  0  0  0  0
    0.9388    0.1589   -0.3538 H   0  0  0  0  0  0  0  0  0  0  0  0
    2.5141   -3.8633   -0.5052 H   0  0  0  0  0  0  0  0  0  0  0  0
   -4.1453   -2.6252    0.1777 H   0  0  0  0  0  0  0  0  0  0  0  0
   -0.7215   -5.2621   -0.1702 H   0  0  0  0  0  0  0  0  0  0  0  0
   -5.1543   -1.0401    1.4330 H   0  0  0  0  0  0  0  0  0  0  0  0
   -2.7061    1.5246   -1.0583 H   0  0  0  0  0  0  0  0  0  0  0  0
   -6.8231    0.7310    1.5982 H   0  0  0  0  0  0  0  0  0  0  0  0
   -4.3320    3.2703   -0.8771 H   0  0  0  0  0  0  0  0  0  0  0  0
   -6.3164    4.2027   -1.2690 H   0  0  0  0  0  0  0  0  0  0  0  0
   -5.4821    4.8316    0.2200 H   0  0  0  0  0  0  0  0  0  0  0  0
   -7.2203    5.0108    0.0072 H   0  0  0  0  0  0  0  0  0  0  0  0
  1 14  1  0  0  0  0
  1 15  1  0  0  0  0
  2 15  1  0  0  0  0
  2 17  1  0  0  0  0
  3 11  1  0  0  0  0
  3 40  1  0  0  0  0
  4 12  1  0  0  0  0
  4 41  1  0  0  0  0
  5 13  1  0  0  0  0
  5 42  1  0  0  0  0
  6 16  1  0  0  0  0
  6 43  1  0  0  0  0
  7 20  1  0  0  0  0
  7 24  1  0  0  0  0
  8 22  1  0  0  0  0
  8 47  1  0  0  0  0
  9 23  2  0  0  0  0
 10 31  1  0  0  0  0
 10 32  1  0  0  0  0
 11 12  1  0  0  0  0
 11 13  1  0  0  0  0
 11 33  1  0  0  0  0
 12 14  1  0  0  0  0
 12 34  1  0  0  0  0
 13 15  1  0  0  0  0
 13 35  1  0  0  0  0
 14 16  1  0  0  0  0
 14 36  1  0  0  0  0
 15 37  1  0  0  0  0
 16 38  1  0  0  0  0
 16 39  1  0  0  0  0
 17 18  1  0  0  0  0
 17 19  2  0  0  0  0
 18 20  2  0  0  0  0
 18 44  1  0  0  0  0
 19 22  1  0  0  0  0
 19 45  1  0  0  0  0
 20 21  1  0  0  0  0
 21 22  2  0  0  0  0
 21 23  1  0  0  0  0
 23 25  1  0  0  0  0
 24 25  2  0  0  0  0
 24 26  1  0  0  0  0
 25 46  1  0  0  0  0
 26 27  2  0  0  0  0
 26 28  1  0  0  0  0
 27 29  1  0  0  0  0
 27 48  1  0  0  0  0
 28 30  2  0  0  0  0
 28 49  1  0  0  0  0
 29 31  2  0  0  0  0
 29 50  1  0  0  0  0
 30 31  1  0  0  0  0
 30 51  1  0  0  0  0
 32 52  1  0  0  0  0
 32 53  1  0  0  0  0
 32 54  1  0  0  0  0
M  END
> <PUBCHEM_COMPOUND_CID>
5321954

> <PUBCHEM_CONFORMER_RMSD>
0.8

> <PUBCHEM_CONFORMER_DIVERSEORDER>
4
142
165
138
133
7
96
174
160
126
128
14
176
155
132
12
71
49
91
167
59
159
29
34
153
98
139
112
166
164
42
109
154
22
25
163
99
21
131
15
54
104
38
16
123
81
115
157
110
88
11
2
52
10
94
118
161
124
92
70
148
9
173
171
5
103
58
39
3
87
44
1
101
114
147
141
170
137
117
119
107
136
89
37
50
6
111
152
121
51
108
125
122
74
86
73
144
116
47
26
43
168
8
53
78
146
67
31
63
79
65
169
40
56
36
106
172
68
120
90
102
80
105
95
140
158
93
69
76
62
72
129
162
64
84
145
150
97
35
46
66
175
77
149
151
20
60
61
57
134
82
100
130
143
27
83
24
55
17
32
127
48
13
113
30
23
45
85
135
156
41
33
18
75
28
19

> <PUBCHEM_MMFF94_PARTIAL_CHARGES>
44
1 -0.56
10 -0.36
11 0.28
12 0.28
13 0.28
14 0.28
15 0.56
16 0.28
17 0.08
18 -0.15
19 -0.15
2 -0.36
20 0.08
21 0.09
22 0.08
23 0.47
24 0.05
25 -0.14
26 0.03
27 -0.15
28 -0.15
29 -0.15
3 -0.68
30 -0.15
31 0.08
32 0.28
4 -0.68
40 0.4
41 0.4
42 0.4
43 0.4
44 0.15
45 0.15
46 0.15
47 0.45
48 0.15
49 0.15
5 -0.68
50 0.15
51 0.15
6 -0.68
7 -0.16
8 -0.53
9 -0.57

> <PUBCHEM_EFFECTIVE_ROTOR_COUNT>
6.2

> <PUBCHEM_PHARMACOPHORE_FEATURES>
18
1 1 acceptor
1 10 acceptor
1 2 acceptor
1 3 acceptor
1 3 donor
1 4 acceptor
1 4 donor
1 5 acceptor
1 5 donor
1 6 acceptor
1 6 donor
1 7 acceptor
1 8 donor
1 9 acceptor
6 1 11 12 13 14 15 rings
6 17 18 19 20 21 22 rings
6 26 27 28 29 30 31 rings
6 7 20 21 23 24 25 rings

> <PUBCHEM_HEAVY_ATOM_COUNT>
32

> <PUBCHEM_ATOM_DEF_STEREO_COUNT>
5

> <PUBCHEM_ATOM_UDEF_STEREO_COUNT>
0

> <PUBCHEM_BOND_DEF_STEREO_COUNT>
0

> <PUBCHEM_BOND_UDEF_STEREO_COUNT>
0

> <PUBCHEM_ISOTOPIC_ATOM_COUNT>
0

> <PUBCHEM_COMPONENT_COUNT>
1

> <PUBCHEM_CACTVS_TAUTO_COUNT>
5

> <PUBCHEM_CONFORMER_ID>
005134E200000004

> <PUBCHEM_MMFF94_ENERGY>
114.8076

> <PUBCHEM_FEATURE_SELFOVERLAP>
91.446

> <PUBCHEM_SHAPE_FINGERPRINT>
10050765 1 18412544288984283047
10411042 1 17186161960120546543
10439779 11 18339636866841603464
10673678 19 18199472069952083321
10675989 125 18125162624091669865
12107183 9 18336253584159021690
12422481 6 17821729420837615101
12925494 130 18409728456820893233
12978246 48 18408891754026227169
13965767 371 18114176419776207414
14020679 6 17603871130400553082
14117953 113 18266460910584789684
14223995 32 18343012316299637192
14395042 24 18118123804713354507
14790565 3 18411142458992114247
14950920 106 17096649996472997690
15320467 1 17906736160874352181
15400415 2 18411702088688707969
15420108 30 18410844465286833966
17810953 82 18410578366366694540
19246450 95 17755266052046631722
19302320 297 18335145245751200281
20715895 44 18340485573616051256
21033648 29 18336272249611720047
21987483 16 18187093845789426179
229767 44 18334855039005743461
23559900 14 18197220252284127167
23569914 2 16555616613457199264
2748736 6 18341324505673609593
2838139 119 18413385436568576663
376196 1 18343865528411349846
4144715 1 18263650731069594010
437795 96 18043244635825959661
50009960 94 16740334670372385699
5104073 3 18260828245586274850
5109719 28 18339091393605267609
5219985 13 18342460365271871639
6036956 94 17830736817856160525
6058803 2 17973713968922237818
6176135 31 18409449142250500241
6371009 1 18265884925458294535
653340 110 17908138029588278220
6700243 42 17047432678086527342
7808743 9 18339920514844386643
9849439 229 18410296908590672847
9896288 288 18190744322286755570
99344 41 18338514145769456181
9981440 41 18409172147003495651

> <PUBCHEM_SHAPE_MULTIPOLES>
599.85
15.71
6.43
0.98
5.18
2.33
0.01
-20.74
5.25
2.19
-1.14
-0.7
-0.52
0.09

> <PUBCHEM_SHAPE_SELFOVERLAP>
1310.066

> <PUBCHEM_SHAPE_VOLUME>
322.7

> <PUBCHEM_COORDINATE_TYPE>
2
5
10

$$$$
