12315364
  -OEChem-09292003123D

 80 83  0     1  0  0  0  0  0999 V2000
   -6.8870    2.1229    0.1407 O   0  0  0  0  0  0  0  0  0  0  0  0
    0.1296   -1.1710    0.1949 C   0  0  1  0  0  0  0  0  0  0  0  0
   -0.5683   -0.4007   -0.9458 C   0  0  2  0  0  0  0  0  0  0  0  0
   -2.6601   -0.0654    0.4751 C   0  0  2  0  0  0  0  0  0  0  0  0
   -4.2190   -0.3110    0.5983 C   0  0  2  0  0  0  0  0  0  0  0  0
    1.6087   -0.8718   -0.1521 C   0  0  2  0  0  0  0  0  0  0  0  0
   -2.0721   -0.4960   -0.8748 C   0  0  0  0  0  0  0  0  0  0  0  0
   -0.3344   -0.5601    1.5275 C   0  0  0  0  0  0  0  0  0  0  0  0
   -1.8617   -0.6439    1.6813 C   0  0  0  0  0  0  0  0  0  0  0  0
    0.2169   -0.8295   -2.1893 C   0  0  0  0  0  0  0  0  0  0  0  0
   -4.9222    0.0375   -0.7506 C   0  0  2  0  0  0  0  0  0  0  0  0
    1.6636   -0.9929   -1.6910 C   0  0  0  0  0  0  0  0  0  0  0  0
    2.6544   -1.7288    0.5474 C   0  0  1  0  0  0  0  0  0  0  0  0
   -4.8455    0.5599    1.7240 C   0  0  0  0  0  0  0  0  0  0  0  0
   -0.1638   -2.6919    0.1717 C   0  0  0  0  0  0  0  0  0  0  0  0
   -4.3353   -0.7753   -1.9187 C   0  0  0  0  0  0  0  0  0  0  0  0
   -2.8397   -0.8292   -1.9254 C   0  0  0  0  0  0  0  0  0  0  0  0
   -4.8833    1.5529   -1.0522 C   0  0  0  0  0  0  0  0  0  0  0  0
   -4.5318   -1.7906    0.9469 C   0  0  0  0  0  0  0  0  0  0  0  0
   -4.8441    2.0613    1.4275 C   0  0  0  0  0  0  0  0  0  0  0  0
   -5.4854    2.3831    0.0804 C   0  0  2  0  0  0  0  0  0  0  0  0
    4.0678   -1.3286    0.0740 C   0  0  0  0  0  0  0  0  0  0  0  0
    2.5016   -1.6090    2.0674 C   0  0  0  0  0  0  0  0  0  0  0  0
    4.4494    0.1508    0.2470 C   0  0  0  0  0  0  0  0  0  0  0  0
    5.8323    0.5738   -0.3133 C   0  0  1  0  0  0  0  0  0  0  0  0
    6.0107    2.1257   -0.3115 C   0  0  0  0  0  0  0  0  0  0  0  0
    6.9701   -0.1745    0.4247 C   0  0  0  0  0  0  0  0  0  0  0  0
    5.9688    2.7131    1.1050 C   0  0  0  0  0  0  0  0  0  0  0  0
    5.0127    2.8677   -1.2045 C   0  0  0  0  0  0  0  0  0  0  0  0
    8.3670    0.1215   -0.1049 C   0  0  0  0  0  0  0  0  0  0  0  0
   -0.3527    0.6743   -0.8207 H   0  0  0  0  0  0  0  0  0  0  0  0
   -2.4851    1.0183    0.5055 H   0  0  0  0  0  0  0  0  0  0  0  0
    1.7733    0.1836    0.1025 H   0  0  0  0  0  0  0  0  0  0  0  0
   -0.0320    0.4931    1.5911 H   0  0  0  0  0  0  0  0  0  0  0  0
    0.0851   -1.0596    2.4000 H   0  0  0  0  0  0  0  0  0  0  0  0
   -2.1417   -0.1076    2.5954 H   0  0  0  0  0  0  0  0  0  0  0  0
   -2.1210   -1.6932    1.8520 H   0  0  0  0  0  0  0  0  0  0  0  0
    0.1513   -0.0846   -2.9894 H   0  0  0  0  0  0  0  0  0  0  0  0
   -0.1440   -1.7819   -2.5940 H   0  0  0  0  0  0  0  0  0  0  0  0
   -5.9837   -0.2403   -0.6761 H   0  0  0  0  0  0  0  0  0  0  0  0
    2.3090   -0.2177   -2.1186 H   0  0  0  0  0  0  0  0  0  0  0  0
    2.0519   -1.9635   -2.0199 H   0  0  0  0  0  0  0  0  0  0  0  0
    2.5275   -2.7859    0.2823 H   0  0  0  0  0  0  0  0  0  0  0  0
   -5.8867    0.2458    1.8819 H   0  0  0  0  0  0  0  0  0  0  0  0
   -4.3368    0.3849    2.6787 H   0  0  0  0  0  0  0  0  0  0  0  0
   -1.2365   -2.9055    0.1335 H   0  0  0  0  0  0  0  0  0  0  0  0
    0.2247   -3.1924    1.0636 H   0  0  0  0  0  0  0  0  0  0  0  0
    0.2817   -3.1877   -0.6970 H   0  0  0  0  0  0  0  0  0  0  0  0
   -4.7155   -1.8035   -1.8895 H   0  0  0  0  0  0  0  0  0  0  0  0
   -4.6799   -0.3508   -2.8696 H   0  0  0  0  0  0  0  0  0  0  0  0
   -2.3845   -1.1159   -2.8685 H   0  0  0  0  0  0  0  0  0  0  0  0
   -5.4520    1.7404   -1.9720 H   0  0  0  0  0  0  0  0  0  0  0  0
   -3.8565    1.8866   -1.2399 H   0  0  0  0  0  0  0  0  0  0  0  0
   -3.9827   -2.4915    0.3104 H   0  0  0  0  0  0  0  0  0  0  0  0
   -4.2827   -2.0211    1.9885 H   0  0  0  0  0  0  0  0  0  0  0  0
   -5.6006   -2.0046    0.8292 H   0  0  0  0  0  0  0  0  0  0  0  0
   -3.8202    2.4491    1.4520 H   0  0  0  0  0  0  0  0  0  0  0  0
   -5.3926    2.5701    2.2296 H   0  0  0  0  0  0  0  0  0  0  0  0
   -5.3640    3.4484   -0.1449 H   0  0  0  0  0  0  0  0  0  0  0  0
    4.7854   -1.9521    0.6200 H   0  0  0  0  0  0  0  0  0  0  0  0
    4.1909   -1.5994   -0.9818 H   0  0  0  0  0  0  0  0  0  0  0  0
    3.4180   -1.9531    2.5621 H   0  0  0  0  0  0  0  0  0  0  0  0
    2.3379   -0.5769    2.3924 H   0  0  0  0  0  0  0  0  0  0  0  0
    1.7130   -2.2588    2.4511 H   0  0  0  0  0  0  0  0  0  0  0  0
    4.3983    0.3969    1.3137 H   0  0  0  0  0  0  0  0  0  0  0  0
    3.6985    0.7625   -0.2545 H   0  0  0  0  0  0  0  0  0  0  0  0
   -7.2575    2.6748    0.8502 H   0  0  0  0  0  0  0  0  0  0  0  0
    5.8669    0.2532   -1.3641 H   0  0  0  0  0  0  0  0  0  0  0  0
    7.0001    2.3478   -0.7295 H   0  0  0  0  0  0  0  0  0  0  0  0
    6.8174   -1.2539    0.3148 H   0  0  0  0  0  0  0  0  0  0  0  0
    6.9358    0.0300    1.5005 H   0  0  0  0  0  0  0  0  0  0  0  0
    6.1732    3.7894    1.0729 H   0  0  0  0  0  0  0  0  0  0  0  0
    4.9884    2.5839    1.5734 H   0  0  0  0  0  0  0  0  0  0  0  0
    6.7256    2.2647    1.7544 H   0  0  0  0  0  0  0  0  0  0  0  0
    4.9817    2.4249   -2.2052 H   0  0  0  0  0  0  0  0  0  0  0  0
    3.9998    2.8574   -0.7908 H   0  0  0  0  0  0  0  0  0  0  0  0
    5.3072    3.9173   -1.3150 H   0  0  0  0  0  0  0  0  0  0  0  0
    8.4151   -0.0182   -1.1893 H   0  0  0  0  0  0  0  0  0  0  0  0
    9.0931   -0.5562    0.3562 H   0  0  0  0  0  0  0  0  0  0  0  0
    8.6793    1.1425    0.1316 H   0  0  0  0  0  0  0  0  0  0  0  0
  1 21  1  0  0  0  0
  1 67  1  0  0  0  0
  2  3  1  0  0  0  0
  2  6  1  0  0  0  0
  2  8  1  0  0  0  0
  2 15  1  0  0  0  0
  3  7  1  0  0  0  0
  3 10  1  0  0  0  0
  3 31  1  0  0  0  0
  4  5  1  0  0  0  0
  4  7  1  0  0  0  0
  4  9  1  0  0  0  0
  4 32  1  0  0  0  0
  5 11  1  0  0  0  0
  5 14  1  0  0  0  0
  5 19  1  0  0  0  0
  6 12  1  0  0  0  0
  6 13  1  0  0  0  0
  6 33  1  0  0  0  0
  7 17  2  0  0  0  0
  8  9  1  0  0  0  0
  8 34  1  0  0  0  0
  8 35  1  0  0  0  0
  9 36  1  0  0  0  0
  9 37  1  0  0  0  0
 10 12  1  0  0  0  0
 10 38  1  0  0  0  0
 10 39  1  0  0  0  0
 11 16  1  0  0  0  0
 11 18  1  0  0  0  0
 11 40  1  0  0  0  0
 12 41  1  0  0  0  0
 12 42  1  0  0  0  0
 13 22  1  0  0  0  0
 13 23  1  0  0  0  0
 13 43  1  0  0  0  0
 14 20  1  0  0  0  0
 14 44  1  0  0  0  0
 14 45  1  0  0  0  0
 15 46  1  0  0  0  0
 15 47  1  0  0  0  0
 15 48  1  0  0  0  0
 16 17  1  0  0  0  0
 16 49  1  0  0  0  0
 16 50  1  0  0  0  0
 17 51  1  0  0  0  0
 18 21  1  0  0  0  0
 18 52  1  0  0  0  0
 18 53  1  0  0  0  0
 19 54  1  0  0  0  0
 19 55  1  0  0  0  0
 19 56  1  0  0  0  0
 20 21  1  0  0  0  0
 20 57  1  0  0  0  0
 20 58  1  0  0  0  0
 21 59  1  0  0  0  0
 22 24  1  0  0  0  0
 22 60  1  0  0  0  0
 22 61  1  0  0  0  0
 23 62  1  0  0  0  0
 23 63  1  0  0  0  0
 23 64  1  0  0  0  0
 24 25  1  0  0  0  0
 24 65  1  0  0  0  0
 24 66  1  0  0  0  0
 25 26  1  0  0  0  0
 25 27  1  0  0  0  0
 25 68  1  0  0  0  0
 26 28  1  0  0  0  0
 26 29  1  0  0  0  0
 26 69  1  0  0  0  0
 27 30  1  0  0  0  0
 27 70  1  0  0  0  0
 27 71  1  0  0  0  0
 28 72  1  0  0  0  0
 28 73  1  0  0  0  0
 28 74  1  0  0  0  0
 29 75  1  0  0  0  0
 29 76  1  0  0  0  0
 29 77  1  0  0  0  0
 30 78  1  0  0  0  0
 30 79  1  0  0  0  0
 30 80  1  0  0  0  0
M  END
> <PUBCHEM_COMPOUND_CID>
12315364

> <PUBCHEM_CONFORMER_RMSD>
1

> <PUBCHEM_CONFORMER_DIVERSEORDER>
4
6
14
3
13
5
7
15
9
8
1
11
16
10
2
12

> <PUBCHEM_MMFF94_PARTIAL_CHARGES>
9
1 -0.68
16 0.14
17 -0.29
21 0.28
3 0.14
4 0.14
51 0.15
67 0.4
7 -0.28

> <PUBCHEM_EFFECTIVE_ROTOR_COUNT>
8

> <PUBCHEM_PHARMACOPHORE_FEATURES>
10
1 1 acceptor
1 1 donor
1 23 hydrophobe
1 30 hydrophobe
3 26 28 29 hydrophobe
5 2 3 6 10 12 rings
6 13 22 24 25 26 27 hydrophobe
6 2 3 4 7 8 9 rings
6 4 5 7 11 16 17 rings
6 5 11 14 18 20 21 rings

> <PUBCHEM_HEAVY_ATOM_COUNT>
30

> <PUBCHEM_ATOM_DEF_STEREO_COUNT>
8

> <PUBCHEM_ATOM_UDEF_STEREO_COUNT>
1

> <PUBCHEM_BOND_DEF_STEREO_COUNT>
0

> <PUBCHEM_BOND_UDEF_STEREO_COUNT>
0

> <PUBCHEM_ISOTOPIC_ATOM_COUNT>
0

> <PUBCHEM_COMPONENT_COUNT>
1

> <PUBCHEM_CACTVS_TAUTO_COUNT>
1

> <PUBCHEM_CONFORMER_ID>
00BBEAE400000004

> <PUBCHEM_MMFF94_ENERGY>
92.0584

> <PUBCHEM_FEATURE_SELFOVERLAP>
50.889

> <PUBCHEM_SHAPE_FINGERPRINT>
10 15 15430043149397025342
10319926 262 15068333532100067500
10554248 39 17560232497135530022
10670039 82 16630528401481535528
10692045 39 18260835895370811030
11135926 11 16343430535123042406
11456790 92 17968370166444091184
12035758 1 16226053270985152399
12236239 1 17989204841921537358
12422481 6 16443060621300917142
12596602 18 18334297552482350859
12633257 1 15430047572949829706
13690498 29 16629102472629609247
13911987 19 17132113512125438021
13914758 101 17989489607111923542
14211702 104 7925627842958294880
14251764 30 9151167640913856911
15082195 135 16988560199965806608
15183329 4 16988566835848768072
15352257 5 9871747992594249652
15475509 35 11458434556583346188
15575132 122 17917996095970731864
15840311 113 18337113354664248437
17780758 139 12396297050301121191
17913733 40 17531240652128891818
17980427 23 17894635868032832911
19958102 18 15267071337158213804
20567600 247 9871747979656554900
21033648 29 18113334237087710840
21033650 10 14117529696956614779
21267235 1 15339110286848760543
21298829 104 18340766048678375552
21756936 100 18342173388463315966
22122407 14 18410865369119445856
22393880 68 15266765672609128775
23559900 14 15792564133272101946
23569914 152 12388173699096954177
23569914 2 17758065519915183388
2748736 6 18336540625191892408
2838139 119 18343582971329116784
3004659 81 16486986068677500182
3383291 50 13045953403582874432
392239 28 17530962497008854980
4058900 60 17988931032844583766
4258327 124 18202563982601846893
474113 269 13045944646977540057
5104073 3 15792565240982669929
6608658 132 17417539020491833792
7226269 152 16226043383954612996

> <PUBCHEM_SHAPE_MULTIPOLES>
611.52
18.92
2.65
1.89
20.63
1.56
-0.22
13.41
1.39
0.69
0.31
-1.38
-0.32
-0.93

> <PUBCHEM_SHAPE_SELFOVERLAP>
1259.982

> <PUBCHEM_SHAPE_VOLUME>
350.5

> <PUBCHEM_COORDINATE_TYPE>
2
5
10

$$$$
