11953776
  -OEChem-09292003353D

 54 55  0     1  0  0  0  0  0999 V2000
    3.7590   -1.7746   -0.0188 O   0  0  0  0  0  0  0  0  0  0  0  0
    0.5226   -0.3420   -0.5049 O   0  0  0  0  0  0  0  0  0  0  0  0
    1.8054   -2.6505   -0.8757 O   0  0  0  0  0  0  0  0  0  0  0  0
    0.1174    4.9046   -0.9390 O   0  0  0  0  0  0  0  0  0  0  0  0
    1.8925    5.9739    0.9137 O   0  0  0  0  0  0  0  0  0  0  0  0
   -0.0554   -1.0445    1.6188 O   0  0  0  0  0  0  0  0  0  0  0  0
   -7.5092   -0.8543    1.7374 O   0  0  0  0  0  0  0  0  0  0  0  0
   -8.1289   -0.9147   -0.9707 O   0  0  0  0  0  0  0  0  0  0  0  0
    2.6267    0.6993   -1.0094 C   0  0  0  0  0  0  0  0  0  0  0  0
    1.8985   -0.3337   -0.1464 C   0  0  2  0  0  0  0  0  0  0  0  0
    2.4281    2.1064   -0.4988 C   0  0  0  0  0  0  0  0  0  0  0  0
    5.8573   -2.9151    0.2432 C   0  0  0  0  0  0  0  0  0  0  0  0
    2.4465   -1.7261   -0.3930 C   0  0  0  0  0  0  0  0  0  0  0  0
    4.4128   -3.0312   -0.2222 C   0  0  0  0  0  0  0  0  0  0  0  0
    6.6216   -4.2202    0.0397 C   0  0  0  0  0  0  0  0  0  0  0  0
    1.3539    2.8696   -0.9566 C   0  0  0  0  0  0  0  0  0  0  0  0
    3.3188    2.6432    0.4307 C   0  0  0  0  0  0  0  0  0  0  0  0
    1.1702    4.1692   -0.4846 C   0  0  0  0  0  0  0  0  0  0  0  0
    3.1353    3.9429    0.9026 C   0  0  0  0  0  0  0  0  0  0  0  0
    8.0749   -4.0870    0.4658 C   0  0  0  0  0  0  0  0  0  0  0  0
    2.0610    4.7060    0.4450 C   0  0  0  0  0  0  0  0  0  0  0  0
   -0.3452   -0.7189    0.4784 C   0  0  0  0  0  0  0  0  0  0  0  0
   -1.7162   -0.6676   -0.0782 C   0  0  0  0  0  0  0  0  0  0  0  0
   -4.1655   -0.9766    0.2649 C   0  0  0  0  0  0  0  0  0  0  0  0
   -2.7575   -0.9979    0.6990 C   0  0  0  0  0  0  0  0  0  0  0  0
   -5.1870   -0.9245    1.2132 C   0  0  0  0  0  0  0  0  0  0  0  0
   -4.4768   -1.0084   -1.0944 C   0  0  0  0  0  0  0  0  0  0  0  0
   -6.5199   -0.9038    0.8024 C   0  0  0  0  0  0  0  0  0  0  0  0
   -5.8096   -0.9880   -1.5052 C   0  0  0  0  0  0  0  0  0  0  0  0
   -6.8312   -0.9357   -0.5569 C   0  0  0  0  0  0  0  0  0  0  0  0
    3.7050    0.5006   -1.0514 H   0  0  0  0  0  0  0  0  0  0  0  0
    2.2762    0.6422   -2.0488 H   0  0  0  0  0  0  0  0  0  0  0  0
    2.0274   -0.1036    0.9194 H   0  0  0  0  0  0  0  0  0  0  0  0
    6.3476   -2.0987   -0.3020 H   0  0  0  0  0  0  0  0  0  0  0  0
    5.8773   -2.6230    1.3006 H   0  0  0  0  0  0  0  0  0  0  0  0
    4.3792   -3.2864   -1.2878 H   0  0  0  0  0  0  0  0  0  0  0  0
    3.8929   -3.8068    0.3523 H   0  0  0  0  0  0  0  0  0  0  0  0
    6.1481   -5.0228    0.6169 H   0  0  0  0  0  0  0  0  0  0  0  0
    6.5838   -4.5138   -1.0158 H   0  0  0  0  0  0  0  0  0  0  0  0
    0.6594    2.4498   -1.6804 H   0  0  0  0  0  0  0  0  0  0  0  0
    4.1581    2.0574    0.7964 H   0  0  0  0  0  0  0  0  0  0  0  0
    3.8365    4.3484    1.6271 H   0  0  0  0  0  0  0  0  0  0  0  0
    8.6029   -5.0334    0.3129 H   0  0  0  0  0  0  0  0  0  0  0  0
    8.5859   -3.3148   -0.1181 H   0  0  0  0  0  0  0  0  0  0  0  0
    8.1502   -3.8231    1.5255 H   0  0  0  0  0  0  0  0  0  0  0  0
   -1.8186   -0.3384   -1.1056 H   0  0  0  0  0  0  0  0  0  0  0  0
   -2.5956   -1.2965    1.7322 H   0  0  0  0  0  0  0  0  0  0  0  0
   -0.3907    4.3719   -1.5747 H   0  0  0  0  0  0  0  0  0  0  0  0
    2.6025    6.1742    1.5476 H   0  0  0  0  0  0  0  0  0  0  0  0
   -4.9484   -0.8984    2.2744 H   0  0  0  0  0  0  0  0  0  0  0  0
   -3.7161   -1.0694   -1.8669 H   0  0  0  0  0  0  0  0  0  0  0  0
   -6.0388   -1.0175   -2.5673 H   0  0  0  0  0  0  0  0  0  0  0  0
   -7.1081   -0.8386    2.6233 H   0  0  0  0  0  0  0  0  0  0  0  0
   -8.1519   -0.9419   -1.9427 H   0  0  0  0  0  0  0  0  0  0  0  0
  1 13  1  0  0  0  0
  1 14  1  0  0  0  0
  2 10  1  0  0  0  0
  2 22  1  0  0  0  0
  3 13  2  0  0  0  0
  4 18  1  0  0  0  0
  4 48  1  0  0  0  0
  5 21  1  0  0  0  0
  5 49  1  0  0  0  0
  6 22  2  0  0  0  0
  7 28  1  0  0  0  0
  7 53  1  0  0  0  0
  8 30  1  0  0  0  0
  8 54  1  0  0  0  0
  9 10  1  0  0  0  0
  9 11  1  0  0  0  0
  9 31  1  0  0  0  0
  9 32  1  0  0  0  0
 10 13  1  0  0  0  0
 10 33  1  0  0  0  0
 11 16  2  0  0  0  0
 11 17  1  0  0  0  0
 12 14  1  0  0  0  0
 12 15  1  0  0  0  0
 12 34  1  0  0  0  0
 12 35  1  0  0  0  0
 14 36  1  0  0  0  0
 14 37  1  0  0  0  0
 15 20  1  0  0  0  0
 15 38  1  0  0  0  0
 15 39  1  0  0  0  0
 16 18  1  0  0  0  0
 16 40  1  0  0  0  0
 17 19  2  0  0  0  0
 17 41  1  0  0  0  0
 18 21  2  0  0  0  0
 19 21  1  0  0  0  0
 19 42  1  0  0  0  0
 20 43  1  0  0  0  0
 20 44  1  0  0  0  0
 20 45  1  0  0  0  0
 22 23  1  0  0  0  0
 23 25  2  0  0  0  0
 23 46  1  0  0  0  0
 24 25  1  0  0  0  0
 24 26  2  0  0  0  0
 24 27  1  0  0  0  0
 25 47  1  0  0  0  0
 26 28  1  0  0  0  0
 26 50  1  0  0  0  0
 27 29  2  0  0  0  0
 27 51  1  0  0  0  0
 28 30  2  0  0  0  0
 29 30  1  0  0  0  0
 29 52  1  0  0  0  0
M  END
> <PUBCHEM_COMPOUND_CID>
11953776

> <PUBCHEM_CONFORMER_RMSD>
1

> <PUBCHEM_CONFORMER_DIVERSEORDER>
1
70
69
73
75
10
99
57
40
103
107
96
85
49
120
51
33
116
31
43
12
82
55
83
32
81
117
104
71
124
41
5
66
56
76
86
93
105
18
123
24
8
91
45
4
121
112
122
90
87
119
50
100
17
44
54
65
47
113
35
29
6
67
34
38
27
21
89
36
20
28
16
30
115
84
88
22
15
98
37
114
3
72
58
92
102
25
61
126
14
42
23
108
60
106
2
80
128
39
11
78
52
111
74
13
48
125
109
118
79
64
9
62
7
101
94
26
110
127
77
63
19
95
97
59
46
53
68

> <PUBCHEM_MMFF94_PARTIAL_CHARGES>
39
1 -0.43
10 0.34
11 -0.14
13 0.66
14 0.28
16 -0.15
17 -0.15
18 0.08
19 -0.15
2 -0.43
21 0.08
22 0.71
23 -0.14
24 0.03
25 -0.18
26 -0.15
27 -0.15
28 0.08
29 -0.15
3 -0.57
30 0.08
4 -0.53
40 0.15
41 0.15
42 0.15
46 0.15
47 0.15
48 0.45
49 0.45
5 -0.53
50 0.15
51 0.15
52 0.15
53 0.45
54 0.45
6 -0.57
7 -0.53
8 -0.53
9 0.14

> <PUBCHEM_EFFECTIVE_ROTOR_COUNT>
11

> <PUBCHEM_PHARMACOPHORE_FEATURES>
9
1 20 hydrophobe
1 3 acceptor
1 4 donor
1 5 donor
1 6 acceptor
1 7 donor
1 8 donor
6 11 16 17 18 19 21 rings
6 24 26 27 28 29 30 rings

> <PUBCHEM_HEAVY_ATOM_COUNT>
30

> <PUBCHEM_ATOM_DEF_STEREO_COUNT>
1

> <PUBCHEM_ATOM_UDEF_STEREO_COUNT>
0

> <PUBCHEM_BOND_DEF_STEREO_COUNT>
1

> <PUBCHEM_BOND_UDEF_STEREO_COUNT>
0

> <PUBCHEM_ISOTOPIC_ATOM_COUNT>
0

> <PUBCHEM_COMPONENT_COUNT>
1

> <PUBCHEM_CACTVS_TAUTO_COUNT>
180

> <PUBCHEM_CONFORMER_ID>
00B6667000000001

> <PUBCHEM_MMFF94_ENERGY>
62.0408

> <PUBCHEM_FEATURE_SELFOVERLAP>
45.68

> <PUBCHEM_SHAPE_FINGERPRINT>
10411042 1 18338796702845472526
10675989 125 17842288244031531441
10937287 8 17691970783428739868
11297750 10 18188481390096472428
12166972 35 18272651233789429467
12342043 65 17388288816185879379
13165053 371 18273493494552436408
13590594 115 18338518534413110192
13955234 65 18337955700423962075
14068700 675 18059576845662783946
15021287 119 18342738486354001095
15419008 47 17967527943776854950
15980000 95 18340210696468950836
16993427 108 18116700821586910306
18365409 1 17687188582611798804
18681886 176 18339634555848498651
1979834 28 18043814406144891613
20238998 120 18340202973674302924
20715895 44 18124031492883499241
21033648 29 17531518897986125237
21049683 271 18261685822196195358
21304303 172 18195531398508080418
2132832 1 18202009797906348913
23559900 14 18336828688258051723
24180151 40 17535460423570659762
283562 15 17973446508323860434
4403749 210 9798248938617271926
44317340 157 18337957921808348539
5219985 9 18339364059509445814
5385378 56 18267024032368875816
59521099 67 18342450444082371929
5969126 39 18266454296762843758
6004065 56 18409446981992778594
6697151 62 18263626442486046895
9962374 69 18341606040880602415

> <PUBCHEM_SHAPE_MULTIPOLES>
570.43
19.14
7.44
1.22
22.04
12.13
-0.1
-28.21
-1.57
-18.04
-0.72
1.57
0.08
0.22

> <PUBCHEM_SHAPE_SELFOVERLAP>
1195.641

> <PUBCHEM_SHAPE_VOLUME>
321

> <PUBCHEM_COORDINATE_TYPE>
2
5
10

$$$$
