12306160
  -OEChem-09292002533D

 79 83  0     1  0  0  0  0  0999 V2000
   -6.4834    1.5785   -0.9464 O   0  0  0  0  0  0  0  0  0  0  0  0
   -0.5024   -0.8485   -0.0264 C   0  0  2  0  0  0  0  0  0  0  0  0
   -1.2409    0.4969    0.3538 C   0  0  1  0  0  0  0  0  0  0  0  0
    0.9775   -0.4814   -0.6231 C   0  0  1  0  0  0  0  0  0  0  0  0
   -2.7972    0.4001    0.6948 C   0  0  2  0  0  0  0  0  0  0  0  0
   -3.4896   -0.3501   -0.5021 C   0  0  1  0  0  0  0  0  0  0  0  0
   -1.3669   -1.6125   -1.0722 C   0  0  0  0  0  0  0  0  0  0  0  0
    1.7219    0.4617    0.3347 C   0  0  0  0  0  0  0  0  0  0  0  0
    3.2483    0.4069    0.3935 C   0  0  1  0  0  0  0  0  0  0  0  0
    3.7710   -1.0313    0.7142 C   0  0  1  0  0  0  0  0  0  0  0  0
    1.8635   -1.7434   -0.8888 C   0  0  0  0  0  0  0  0  0  0  0  0
   -2.8523   -1.7377   -0.7184 C   0  0  0  0  0  0  0  0  0  0  0  0
   -0.4224    1.3398    1.3562 C   0  0  0  0  0  0  0  0  0  0  0  0
   -5.0570   -0.3448   -0.5148 C   0  0  0  0  0  0  0  0  0  0  0  0
    2.7869   -2.1462    0.2648 C   0  0  0  0  0  0  0  0  0  0  0  0
   -3.3825    1.8446    0.7362 C   0  0  0  0  0  0  0  0  0  0  0  0
   -0.3537   -1.7772    1.2071 C   0  0  0  0  0  0  0  0  0  0  0  0
    1.0633    1.2653    1.1898 C   0  0  0  0  0  0  0  0  0  0  0  0
    0.8437    0.2465   -1.9977 C   0  0  0  0  0  0  0  0  0  0  0  0
    3.9343    1.0106   -0.8479 C   0  0  0  0  0  0  0  0  0  0  0  0
   -3.0641   -0.2634    2.0685 C   0  0  0  0  0  0  0  0  0  0  0  0
    5.1532   -1.2784    0.0448 C   0  0  0  0  0  0  0  0  0  0  0  0
    5.4697    1.1508   -0.6794 C   0  0  0  0  0  0  0  0  0  0  0  0
   -4.9032    1.9082    0.7948 C   0  0  0  0  0  0  0  0  0  0  0  0
    6.0598   -0.0482    0.1018 C   0  0  0  0  0  0  0  0  0  0  0  0
   -5.5430    1.1005   -0.3083 C   0  0  0  0  0  0  0  0  0  0  0  0
    3.9376   -1.1717    2.2501 C   0  0  0  0  0  0  0  0  0  0  0  0
   -5.5687   -0.8178   -1.8996 C   0  0  0  0  0  0  0  0  0  0  0  0
   -5.7231   -1.2378    0.5407 C   0  0  0  0  0  0  0  0  0  0  0  0
    6.1082    1.2224   -2.0814 C   0  0  0  0  0  0  0  0  0  0  0  0
    5.8112    2.4577    0.0609 C   0  0  0  0  0  0  0  0  0  0  0  0
   -1.2340    1.0951   -0.5666 H   0  0  0  0  0  0  0  0  0  0  0  0
   -3.2168    0.2357   -1.3967 H   0  0  0  0  0  0  0  0  0  0  0  0
   -0.9664   -2.6186   -1.2417 H   0  0  0  0  0  0  0  0  0  0  0  0
   -1.3330   -1.1067   -2.0412 H   0  0  0  0  0  0  0  0  0  0  0  0
    3.5619    1.0531    1.2260 H   0  0  0  0  0  0  0  0  0  0  0  0
    2.5014   -1.5783   -1.7675 H   0  0  0  0  0  0  0  0  0  0  0  0
    1.2403   -2.6015   -1.1613 H   0  0  0  0  0  0  0  0  0  0  0  0
   -3.3319   -2.2551   -1.5550 H   0  0  0  0  0  0  0  0  0  0  0  0
   -2.9869   -2.3894    0.1487 H   0  0  0  0  0  0  0  0  0  0  0  0
   -0.6352    1.0507    2.3884 H   0  0  0  0  0  0  0  0  0  0  0  0
   -0.7115    2.3933    1.2634 H   0  0  0  0  0  0  0  0  0  0  0  0
    2.1829   -2.4713    1.1159 H   0  0  0  0  0  0  0  0  0  0  0  0
    3.3461   -3.0436   -0.0318 H   0  0  0  0  0  0  0  0  0  0  0  0
   -3.0563    2.3926   -0.1582 H   0  0  0  0  0  0  0  0  0  0  0  0
   -2.9843    2.3924    1.5987 H   0  0  0  0  0  0  0  0  0  0  0  0
    0.2713   -1.3409    1.9909 H   0  0  0  0  0  0  0  0  0  0  0  0
   -1.3051   -2.0350    1.6664 H   0  0  0  0  0  0  0  0  0  0  0  0
    0.0777   -2.7421    0.9232 H   0  0  0  0  0  0  0  0  0  0  0  0
    1.6300    1.8968    1.8709 H   0  0  0  0  0  0  0  0  0  0  0  0
    0.2122    1.1367   -1.9555 H   0  0  0  0  0  0  0  0  0  0  0  0
    1.8044    0.5916   -2.3849 H   0  0  0  0  0  0  0  0  0  0  0  0
    0.4490   -0.4192   -2.7716 H   0  0  0  0  0  0  0  0  0  0  0  0
    3.7474    0.3662   -1.7132 H   0  0  0  0  0  0  0  0  0  0  0  0
    3.4934    1.9864   -1.0896 H   0  0  0  0  0  0  0  0  0  0  0  0
   -2.2482   -0.1135    2.7778 H   0  0  0  0  0  0  0  0  0  0  0  0
   -3.9459    0.1431    2.5693 H   0  0  0  0  0  0  0  0  0  0  0  0
   -3.2328   -1.3392    1.9961 H   0  0  0  0  0  0  0  0  0  0  0  0
    5.0197   -1.5684   -1.0057 H   0  0  0  0  0  0  0  0  0  0  0  0
    5.6604   -2.1234    0.5275 H   0  0  0  0  0  0  0  0  0  0  0  0
   -5.2161    2.9530    0.6821 H   0  0  0  0  0  0  0  0  0  0  0  0
   -5.2994    1.5631    1.7534 H   0  0  0  0  0  0  0  0  0  0  0  0
    6.2253    0.2218    1.1516 H   0  0  0  0  0  0  0  0  0  0  0  0
    7.0495   -0.3123   -0.2913 H   0  0  0  0  0  0  0  0  0  0  0  0
    2.9854   -1.0085    2.7679 H   0  0  0  0  0  0  0  0  0  0  0  0
    4.2942   -2.1727    2.5185 H   0  0  0  0  0  0  0  0  0  0  0  0
    4.6539   -0.4473    2.6511 H   0  0  0  0  0  0  0  0  0  0  0  0
   -5.1144   -0.2369   -2.7105 H   0  0  0  0  0  0  0  0  0  0  0  0
   -5.3587   -1.8769   -2.0767 H   0  0  0  0  0  0  0  0  0  0  0  0
   -6.6553   -0.6981   -1.9893 H   0  0  0  0  0  0  0  0  0  0  0  0
   -5.5902   -0.8676    1.5583 H   0  0  0  0  0  0  0  0  0  0  0  0
   -6.8084   -1.2781    0.3831 H   0  0  0  0  0  0  0  0  0  0  0  0
   -5.3506   -2.2658    0.4958 H   0  0  0  0  0  0  0  0  0  0  0  0
    5.9378    0.2971   -2.6431 H   0  0  0  0  0  0  0  0  0  0  0  0
    5.6883    2.0499   -2.6644 H   0  0  0  0  0  0  0  0  0  0  0  0
    7.1913    1.3765   -2.0175 H   0  0  0  0  0  0  0  0  0  0  0  0
    6.8955    2.5763    0.1690 H   0  0  0  0  0  0  0  0  0  0  0  0
    5.4343    3.3314   -0.4827 H   0  0  0  0  0  0  0  0  0  0  0  0
    5.3752    2.4791    1.0651 H   0  0  0  0  0  0  0  0  0  0  0  0
  1 26  2  0  0  0  0
  2  3  1  0  0  0  0
  2  4  1  0  0  0  0
  2  7  1  0  0  0  0
  2 17  1  0  0  0  0
  3  5  1  0  0  0  0
  3 13  1  0  0  0  0
  3 32  1  0  0  0  0
  4  8  1  0  0  0  0
  4 11  1  0  0  0  0
  4 19  1  0  0  0  0
  5  6  1  0  0  0  0
  5 16  1  0  0  0  0
  5 21  1  0  0  0  0
  6 12  1  0  0  0  0
  6 14  1  0  0  0  0
  6 33  1  0  0  0  0
  7 12  1  0  0  0  0
  7 34  1  0  0  0  0
  7 35  1  0  0  0  0
  8  9  1  0  0  0  0
  8 18  2  0  0  0  0
  9 10  1  0  0  0  0
  9 20  1  0  0  0  0
  9 36  1  0  0  0  0
 10 15  1  0  0  0  0
 10 22  1  0  0  0  0
 10 27  1  0  0  0  0
 11 15  1  0  0  0  0
 11 37  1  0  0  0  0
 11 38  1  0  0  0  0
 12 39  1  0  0  0  0
 12 40  1  0  0  0  0
 13 18  1  0  0  0  0
 13 41  1  0  0  0  0
 13 42  1  0  0  0  0
 14 26  1  0  0  0  0
 14 28  1  0  0  0  0
 14 29  1  0  0  0  0
 15 43  1  0  0  0  0
 15 44  1  0  0  0  0
 16 24  1  0  0  0  0
 16 45  1  0  0  0  0
 16 46  1  0  0  0  0
 17 47  1  0  0  0  0
 17 48  1  0  0  0  0
 17 49  1  0  0  0  0
 18 50  1  0  0  0  0
 19 51  1  0  0  0  0
 19 52  1  0  0  0  0
 19 53  1  0  0  0  0
 20 23  1  0  0  0  0
 20 54  1  0  0  0  0
 20 55  1  0  0  0  0
 21 56  1  0  0  0  0
 21 57  1  0  0  0  0
 21 58  1  0  0  0  0
 22 25  1  0  0  0  0
 22 59  1  0  0  0  0
 22 60  1  0  0  0  0
 23 25  1  0  0  0  0
 23 30  1  0  0  0  0
 23 31  1  0  0  0  0
 24 26  1  0  0  0  0
 24 61  1  0  0  0  0
 24 62  1  0  0  0  0
 25 63  1  0  0  0  0
 25 64  1  0  0  0  0
 27 65  1  0  0  0  0
 27 66  1  0  0  0  0
 27 67  1  0  0  0  0
 28 68  1  0  0  0  0
 28 69  1  0  0  0  0
 28 70  1  0  0  0  0
 29 71  1  0  0  0  0
 29 72  1  0  0  0  0
 29 73  1  0  0  0  0
 30 74  1  0  0  0  0
 30 75  1  0  0  0  0
 30 76  1  0  0  0  0
 31 77  1  0  0  0  0
 31 78  1  0  0  0  0
 31 79  1  0  0  0  0
M  END
> <PUBCHEM_COMPOUND_CID>
12306160

> <PUBCHEM_CONFORMER_RMSD>
0.8

> <PUBCHEM_CONFORMER_DIVERSEORDER>
1

> <PUBCHEM_MMFF94_PARTIAL_CHARGES>
10
1 -0.57
13 0.14
14 0.06
18 -0.29
24 0.06
26 0.45
4 0.14
50 0.15
8 -0.28
9 0.14

> <PUBCHEM_EFFECTIVE_ROTOR_COUNT>
2.4

> <PUBCHEM_PHARMACOPHORE_FEATURES>
8
1 1 acceptor
3 14 28 29 hydrophobe
3 23 30 31 hydrophobe
6 2 3 4 8 13 18 rings
6 2 3 5 6 7 12 rings
6 4 8 9 10 11 15 rings
6 5 6 14 16 24 26 rings
6 9 10 20 22 23 25 rings

> <PUBCHEM_HEAVY_ATOM_COUNT>
31

> <PUBCHEM_ATOM_DEF_STEREO_COUNT>
7

> <PUBCHEM_ATOM_UDEF_STEREO_COUNT>
0

> <PUBCHEM_BOND_DEF_STEREO_COUNT>
0

> <PUBCHEM_BOND_UDEF_STEREO_COUNT>
0

> <PUBCHEM_ISOTOPIC_ATOM_COUNT>
0

> <PUBCHEM_COMPONENT_COUNT>
1

> <PUBCHEM_CACTVS_TAUTO_COUNT>
2

> <PUBCHEM_CONFORMER_ID>
00BBC6F000000001

> <PUBCHEM_MMFF94_ENERGY>
147.3836

> <PUBCHEM_FEATURE_SELFOVERLAP>
40.69

> <PUBCHEM_SHAPE_FINGERPRINT>
10 15 14779268630785978828
10554248 39 18265600018518125087
10595046 47 18412543202113768697
10670039 82 17632027359977709128
10906281 52 17988938755480143955
11488393 25 15337735776590460660
11578080 2 13119442609557804988
11607047 403 14569908577864692697
11963148 33 17703781535460844159
12011746 2 17704353272937463380
12107183 9 17690279309379985642
12166972 35 17918272090664151265
12236239 1 18335138691477599302
12403259 415 16989122058549103121
12596602 18 18114181938766789899
12788726 201 17632583699485585601
13533116 47 16878216451476296138
13583140 156 17968387852174890817
13690498 29 17701253883125185407
13782708 43 14635140210084559504
14528608 73 18343303678095474604
14787075 74 18412825776428138090
14790565 3 18413392025195952280
14840074 17 18113341924899719158
14955137 171 15267058194236229115
15131766 46 17677619846663849740
15183329 4 18131071528027397581
15238133 3 18272364253234019632
1577012 14 18410291406763985749
15788980 27 18413103940538977211
15840311 113 18187086118092947813
1601671 61 18060138730559007496
17349148 13 17418374701158102945
17980427 23 18335150777980041277
18222031 100 17203607094809950768
18608769 82 18267307711001581979
18681886 176 17846775248030915088
19319366 153 18410285926713445778
20511986 3 18335973233819709140
21033648 29 16443333299873369276
21267235 1 18131636694273770099
22393880 68 17845930835415751812
23402539 116 17775275054806262591
23522609 53 17844835696017977704
23559900 14 16845287301778270672
23569914 152 14399586121681507893
23569914 2 17174847224908177893
2838139 119 18411699872263575876
3004659 81 18410572852050413378
34797466 226 17131559439790582124
350125 39 18201720669772676497
3633792 109 18040704862654274143
397830 11 16081952440800799009
4058900 60 18336553737131071418
4073 2 17458633349152503131
4169191 19 17168718543062893004
4340502 62 17894910763356957642
504579 68 18410863144489364636
5104073 3 18040436589853078835
59755656 215 16487257651326143622
6328613 192 18411135852836768340
70251023 43 17460024082034861898

> <PUBCHEM_SHAPE_MULTIPOLES>
632.1
15.72
2.18
1.73
0.54
0.16
0.01
4.91
3.84
-0.36
-0.14
-0.3
-0.1
-1.49

> <PUBCHEM_SHAPE_SELFOVERLAP>
1339.22

> <PUBCHEM_SHAPE_VOLUME>
351.4

> <PUBCHEM_COORDINATE_TYPE>
2
5
10

$$$$
