71307353
  -OEChem-09292002473D

 83 87  0     1  0  0  0  0  0999 V2000
   -6.9198    1.0477   -0.2333 O   0  0  0  0  0  0  0  0  0  0  0  0
   -5.1882    3.2633   -0.1799 O   0  0  0  0  0  0  0  0  0  0  0  0
   -5.1646   -1.0557   -2.4370 O   0  0  0  0  0  0  0  0  0  0  0  0
    4.8319   -2.2519    1.4533 O   0  0  0  0  0  0  0  0  0  0  0  0
    3.7167   -0.3663    2.0833 O   0  0  0  0  0  0  0  0  0  0  0  0
   -0.4727   -0.9824    0.2620 C   0  0  2  0  0  0  0  0  0  0  0  0
   -1.1745    0.4277    0.2540 C   0  0  1  0  0  0  0  0  0  0  0  0
   -2.7134    0.4874    0.6808 C   0  0  2  0  0  0  0  0  0  0  0  0
    0.9438   -0.8645   -0.5525 C   0  0  1  0  0  0  0  0  0  0  0  0
   -3.4749   -0.6071   -0.1528 C   0  0  1  0  0  0  0  0  0  0  0  0
   -1.4082   -2.0360   -0.3926 C   0  0  0  0  0  0  0  0  0  0  0  0
   -2.8578   -1.9992    0.0948 C   0  0  0  0  0  0  0  0  0  0  0  0
   -5.0482   -0.5567   -0.1035 C   0  0  1  0  0  0  0  0  0  0  0  0
    1.7543    0.3814   -0.1157 C   0  0  0  0  0  0  0  0  0  0  0  0
    3.2332    0.4418   -0.5600 C   0  0  2  0  0  0  0  0  0  0  0  0
   -3.2830    1.8762    0.2684 C   0  0  0  0  0  0  0  0  0  0  0  0
   -0.2772    1.4711    0.9487 C   0  0  0  0  0  0  0  0  0  0  0  0
    1.7969   -2.1522   -0.3293 C   0  0  0  0  0  0  0  0  0  0  0  0
    4.0046   -0.8727   -0.2791 C   0  0  1  0  0  0  0  0  0  0  0  0
   -0.2000   -1.4513    1.7229 C   0  0  0  0  0  0  0  0  0  0  0  0
    3.2314   -2.0757   -0.8555 C   0  0  0  0  0  0  0  0  0  0  0  0
   -5.5157    0.8893   -0.4577 C   0  0  2  0  0  0  0  0  0  0  0  0
   -4.8075    1.9842    0.3410 C   0  0  2  0  0  0  0  0  0  0  0  0
   -2.9167    0.3408    2.2092 C   0  0  0  0  0  0  0  0  0  0  0  0
    1.1686    1.3868    0.5635 C   0  0  0  0  0  0  0  0  0  0  0  0
    0.7090   -0.7275   -2.0885 C   0  0  0  0  0  0  0  0  0  0  0  0
    4.0434    1.6724   -0.0670 C   0  0  0  0  0  0  0  0  0  0  0  0
    5.4330   -0.8522   -0.8863 C   0  0  0  0  0  0  0  0  0  0  0  0
    5.5352    1.6841   -0.5026 C   0  0  0  0  0  0  0  0  0  0  0  0
   -5.6265   -1.5103   -1.1886 C   0  0  0  0  0  0  0  0  0  0  0  0
   -5.6467   -1.0309    1.2363 C   0  0  0  0  0  0  0  0  0  0  0  0
    5.8571    0.5076   -1.4413 C   0  0  0  0  0  0  0  0  0  0  0  0
    4.1498   -1.1056    1.2121 C   0  0  0  0  0  0  0  0  0  0  0  0
    6.4454    1.6371    0.7415 C   0  0  0  0  0  0  0  0  0  0  0  0
    5.8413    2.9993   -1.2485 C   0  0  0  0  0  0  0  0  0  0  0  0
   -1.1964    0.7339   -0.8009 H   0  0  0  0  0  0  0  0  0  0  0  0
   -3.2268   -0.3676   -1.1994 H   0  0  0  0  0  0  0  0  0  0  0  0
   -1.0099   -3.0467   -0.2423 H   0  0  0  0  0  0  0  0  0  0  0  0
   -1.4545   -1.8895   -1.4757 H   0  0  0  0  0  0  0  0  0  0  0  0
   -3.3917   -2.7731   -0.4625 H   0  0  0  0  0  0  0  0  0  0  0  0
   -2.9156   -2.2956    1.1451 H   0  0  0  0  0  0  0  0  0  0  0  0
    3.1854    0.5600   -1.6519 H   0  0  0  0  0  0  0  0  0  0  0  0
   -2.9721    2.1192   -0.7574 H   0  0  0  0  0  0  0  0  0  0  0  0
   -2.8505    2.6690    0.8921 H   0  0  0  0  0  0  0  0  0  0  0  0
   -0.3210    1.3915    2.0379 H   0  0  0  0  0  0  0  0  0  0  0  0
   -0.6251    2.4778    0.6915 H   0  0  0  0  0  0  0  0  0  0  0  0
    1.3026   -3.0127   -0.7970 H   0  0  0  0  0  0  0  0  0  0  0  0
    1.8754   -2.3936    0.7338 H   0  0  0  0  0  0  0  0  0  0  0  0
    0.6017   -0.8820    2.2027 H   0  0  0  0  0  0  0  0  0  0  0  0
    0.0804   -2.5098    1.7593 H   0  0  0  0  0  0  0  0  0  0  0  0
   -1.0722   -1.3758    2.3665 H   0  0  0  0  0  0  0  0  0  0  0  0
    3.7369   -3.0230   -0.6271 H   0  0  0  0  0  0  0  0  0  0  0  0
    3.2110   -2.0128   -1.9508 H   0  0  0  0  0  0  0  0  0  0  0  0
   -5.3586    1.1059   -1.5206 H   0  0  0  0  0  0  0  0  0  0  0  0
   -5.1545    1.9788    1.3788 H   0  0  0  0  0  0  0  0  0  0  0  0
   -2.1132    0.8003    2.7873 H   0  0  0  0  0  0  0  0  0  0  0  0
   -3.8218    0.8383    2.5634 H   0  0  0  0  0  0  0  0  0  0  0  0
   -3.0032   -0.6971    2.5337 H   0  0  0  0  0  0  0  0  0  0  0  0
    1.7442    2.2558    0.8661 H   0  0  0  0  0  0  0  0  0  0  0  0
    0.3163   -1.6527   -2.5225 H   0  0  0  0  0  0  0  0  0  0  0  0
    1.6307   -0.5206   -2.6410 H   0  0  0  0  0  0  0  0  0  0  0  0
    0.0197    0.0833   -2.3382 H   0  0  0  0  0  0  0  0  0  0  0  0
    3.5526    2.5697   -0.4697 H   0  0  0  0  0  0  0  0  0  0  0  0
    3.9751    1.7818    1.0214 H   0  0  0  0  0  0  0  0  0  0  0  0
    6.1948   -1.1647   -0.1618 H   0  0  0  0  0  0  0  0  0  0  0  0
    5.5122   -1.5765   -1.7076 H   0  0  0  0  0  0  0  0  0  0  0  0
   -6.7219   -1.4689   -1.1989 H   0  0  0  0  0  0  0  0  0  0  0  0
   -5.3439   -2.5555   -1.0433 H   0  0  0  0  0  0  0  0  0  0  0  0
   -5.2145   -1.9852    1.5535 H   0  0  0  0  0  0  0  0  0  0  0  0
   -5.5070   -0.3114    2.0432 H   0  0  0  0  0  0  0  0  0  0  0  0
   -6.7286   -1.1920    1.1549 H   0  0  0  0  0  0  0  0  0  0  0  0
    6.9310    0.4810   -1.6680 H   0  0  0  0  0  0  0  0  0  0  0  0
    5.3574    0.6595   -2.4077 H   0  0  0  0  0  0  0  0  0  0  0  0
   -7.0813    1.0572    0.7249 H   0  0  0  0  0  0  0  0  0  0  0  0
   -4.7487    3.9421    0.3602 H   0  0  0  0  0  0  0  0  0  0  0  0
    5.6445    3.8704   -0.6132 H   0  0  0  0  0  0  0  0  0  0  0  0
    5.2238    3.0963   -2.1488 H   0  0  0  0  0  0  0  0  0  0  0  0
    6.8912    3.0439   -1.5596 H   0  0  0  0  0  0  0  0  0  0  0  0
    6.2705    2.5034    1.3899 H   0  0  0  0  0  0  0  0  0  0  0  0
    7.5036    1.6475    0.4564 H   0  0  0  0  0  0  0  0  0  0  0  0
    6.2758    0.7394    1.3424 H   0  0  0  0  0  0  0  0  0  0  0  0
   -5.5366   -1.6443   -3.1155 H   0  0  0  0  0  0  0  0  0  0  0  0
    4.9371   -2.4198    2.4140 H   0  0  0  0  0  0  0  0  0  0  0  0
  1 22  1  0  0  0  0
  1 74  1  0  0  0  0
  2 23  1  0  0  0  0
  2 75  1  0  0  0  0
  3 30  1  0  0  0  0
  3 82  1  0  0  0  0
  4 33  1  0  0  0  0
  4 83  1  0  0  0  0
  5 33  2  0  0  0  0
  6  7  1  0  0  0  0
  6  9  1  0  0  0  0
  6 11  1  0  0  0  0
  6 20  1  0  0  0  0
  7  8  1  0  0  0  0
  7 17  1  0  0  0  0
  7 36  1  0  0  0  0
  8 10  1  0  0  0  0
  8 16  1  0  0  0  0
  8 24  1  0  0  0  0
  9 14  1  0  0  0  0
  9 18  1  0  0  0  0
  9 26  1  0  0  0  0
 10 12  1  0  0  0  0
 10 13  1  0  0  0  0
 10 37  1  0  0  0  0
 11 12  1  0  0  0  0
 11 38  1  0  0  0  0
 11 39  1  0  0  0  0
 12 40  1  0  0  0  0
 12 41  1  0  0  0  0
 13 22  1  0  0  0  0
 13 30  1  0  0  0  0
 13 31  1  0  0  0  0
 14 15  1  0  0  0  0
 14 25  2  0  0  0  0
 15 19  1  0  0  0  0
 15 27  1  0  0  0  0
 15 42  1  0  0  0  0
 16 23  1  0  0  0  0
 16 43  1  0  0  0  0
 16 44  1  0  0  0  0
 17 25  1  0  0  0  0
 17 45  1  0  0  0  0
 17 46  1  0  0  0  0
 18 21  1  0  0  0  0
 18 47  1  0  0  0  0
 18 48  1  0  0  0  0
 19 21  1  0  0  0  0
 19 28  1  0  0  0  0
 19 33  1  0  0  0  0
 20 49  1  0  0  0  0
 20 50  1  0  0  0  0
 20 51  1  0  0  0  0
 21 52  1  0  0  0  0
 21 53  1  0  0  0  0
 22 23  1  0  0  0  0
 22 54  1  0  0  0  0
 23 55  1  0  0  0  0
 24 56  1  0  0  0  0
 24 57  1  0  0  0  0
 24 58  1  0  0  0  0
 25 59  1  0  0  0  0
 26 60  1  0  0  0  0
 26 61  1  0  0  0  0
 26 62  1  0  0  0  0
 27 29  1  0  0  0  0
 27 63  1  0  0  0  0
 27 64  1  0  0  0  0
 28 32  1  0  0  0  0
 28 65  1  0  0  0  0
 28 66  1  0  0  0  0
 29 32  1  0  0  0  0
 29 34  1  0  0  0  0
 29 35  1  0  0  0  0
 30 67  1  0  0  0  0
 30 68  1  0  0  0  0
 31 69  1  0  0  0  0
 31 70  1  0  0  0  0
 31 71  1  0  0  0  0
 32 72  1  0  0  0  0
 32 73  1  0  0  0  0
 34 79  1  0  0  0  0
 34 80  1  0  0  0  0
 34 81  1  0  0  0  0
 35 76  1  0  0  0  0
 35 77  1  0  0  0  0
 35 78  1  0  0  0  0
M  END
> <PUBCHEM_COMPOUND_CID>
71307353

> <PUBCHEM_CONFORMER_RMSD>
0.8

> <PUBCHEM_CONFORMER_DIVERSEORDER>
4
14
7
16
11
12
17
10
3
6
15
2
5
9
13
1
8

> <PUBCHEM_MMFF94_PARTIAL_CHARGES>
20
1 -0.68
14 -0.28
15 0.14
17 0.14
19 0.06
2 -0.68
22 0.28
23 0.28
25 -0.29
3 -0.68
30 0.28
33 0.66
4 -0.65
5 -0.57
59 0.15
74 0.4
75 0.4
82 0.4
83 0.5
9 0.14

> <PUBCHEM_EFFECTIVE_ROTOR_COUNT>
4.6

> <PUBCHEM_PHARMACOPHORE_FEATURES>
15
1 1 acceptor
1 1 donor
1 2 acceptor
1 2 donor
1 3 acceptor
1 3 donor
1 4 acceptor
1 5 acceptor
3 29 34 35 hydrophobe
3 4 5 33 anion
6 15 19 27 28 29 32 rings
6 6 7 8 10 11 12 rings
6 6 7 9 14 17 25 rings
6 8 10 13 16 22 23 rings
6 9 14 15 18 19 21 rings

> <PUBCHEM_HEAVY_ATOM_COUNT>
35

> <PUBCHEM_ATOM_DEF_STEREO_COUNT>
6

> <PUBCHEM_ATOM_UDEF_STEREO_COUNT>
4

> <PUBCHEM_BOND_DEF_STEREO_COUNT>
0

> <PUBCHEM_BOND_UDEF_STEREO_COUNT>
0

> <PUBCHEM_ISOTOPIC_ATOM_COUNT>
0

> <PUBCHEM_COMPONENT_COUNT>
1

> <PUBCHEM_CACTVS_TAUTO_COUNT>
1

> <PUBCHEM_CONFORMER_ID>
0440105900000004

> <PUBCHEM_MMFF94_ENERGY>
161.6981

> <PUBCHEM_FEATURE_SELFOVERLAP>
76.241

> <PUBCHEM_SHAPE_FINGERPRINT>
10554248 39 18335970978883160967
10595046 47 18412263939145364447
10906281 52 18059873752551895211
11007060 377 18335989761001629219
11488393 25 16199050304926314630
11991303 11 17131833217547570407
12107183 9 18046622300874609770
12166972 35 18341899609888638680
12236239 1 18113620075276745715
12596602 18 17894914039984364619
12788726 201 17988932132303055168
13073987 5 18186804677459969147
13533116 47 17749385919733212122
13583140 156 17095814311911939595
13782708 43 17821728291024027538
13811026 1 18413387639707178465
14528608 73 18342741827637694580
14790565 3 18409170973981102857
14840074 17 17203612588241836509
14955137 171 12391512018372926291
15082195 135 18060423529903832228
15131766 46 16591691663221410884
15183329 4 18413670201838200757
1577012 14 18408601461829284807
15788980 27 18412544293336291691
15840311 113 18041279864238344669
17349148 13 18272370871277696331
17980427 23 18187937174705844501
18608769 82 18338524157295798059
18681886 176 18202565103508923184
20511986 3 18334847329602224366
21033648 29 15357691956069368743
22393880 68 17989207044653957645
23522609 53 17773063983735552873
23559900 14 18130502041302823481
23569914 152 17124533298116385468
23569943 247 11887138477885699125
2838139 119 18341611559575331004
3004659 81 18410295779283097776
34797466 226 18060430100655032983
350125 39 18342461452473461025
394071 54 15864084190956862436
4058900 60 18333740117351722954
4073 2 18041287650460249019
4169191 19 17822860900054850484
4340502 62 17530963627128488410
5104073 3 18187933849952413659
5283173 99 18411140199496775961
6086070 43 17490148616996166760

> <PUBCHEM_SHAPE_MULTIPOLES>
690.94
16.75
2.74
1.63
1.61
0.9
-0.1
6.08
3.03
-0.48
0.23
-0.05
-0.43
-1.18

> <PUBCHEM_SHAPE_SELFOVERLAP>
1471.366

> <PUBCHEM_SHAPE_VOLUME>
374.3

> <PUBCHEM_COORDINATE_TYPE>
2
5
10

$$$$
