73493
  -OEChem-09292007253D

 84 88  0     1  0  0  0  0  0999 V2000
   -7.2575    1.0275   -0.1804 O   0  0  0  0  0  0  0  0  0  0  0  0
    4.7162   -2.5415    0.5595 O   0  0  0  0  0  0  0  0  0  0  0  0
    3.3704   -1.1268    1.7940 O   0  0  0  0  0  0  0  0  0  0  0  0
   -0.7489   -0.8797   -0.0844 C   0  0  1  0  0  0  0  0  0  0  0  0
    0.6804   -0.5960   -0.8147 C   0  0  1  0  0  0  0  0  0  0  0  0
   -1.4877    0.5026    0.1479 C   0  0  1  0  0  0  0  0  0  0  0  0
    1.5260    0.3876    0.0942 C   0  0  1  0  0  0  0  0  0  0  0  0
   -3.0117    0.4269    0.6176 C   0  0  2  0  0  0  0  0  0  0  0  0
    2.9483    0.5905   -0.4745 C   0  0  2  0  0  0  0  0  0  0  0  0
   -3.7667   -0.5072   -0.4038 C   0  0  1  0  0  0  0  0  0  0  0  0
    3.6944   -0.7514   -0.5796 C   0  0  1  0  0  0  0  0  0  0  0  0
   -1.6541   -1.7972   -0.9532 C   0  0  0  0  0  0  0  0  0  0  0  0
   -0.6096    1.4794    0.9625 C   0  0  0  0  0  0  0  0  0  0  0  0
    1.5007   -1.9128   -1.0593 C   0  0  0  0  0  0  0  0  0  0  0  0
    0.7780    1.6999    0.3538 C   0  0  0  0  0  0  0  0  0  0  0  0
   -3.1087   -1.8991   -0.4808 C   0  0  0  0  0  0  0  0  0  0  0  0
    2.9556   -1.6943   -1.5283 C   0  0  0  0  0  0  0  0  0  0  0  0
   -5.3376   -0.5234   -0.2981 C   0  0  0  0  0  0  0  0  0  0  0  0
    3.9569    1.4954    0.2598 C   0  0  1  0  0  0  0  0  0  0  0  0
   -3.6425    1.8517    0.5111 C   0  0  0  0  0  0  0  0  0  0  0  0
   -0.5159   -1.6313    1.2606 C   0  0  0  0  0  0  0  0  0  0  0  0
    0.4666    0.0287   -2.2358 C   0  0  0  0  0  0  0  0  0  0  0  0
    5.0762   -0.2932   -1.0422 C   0  0  0  0  0  0  0  0  0  0  0  0
    5.3338    0.9964   -0.2409 C   0  0  0  0  0  0  0  0  0  0  0  0
   -3.1440   -0.0271    2.0911 C   0  0  0  0  0  0  0  0  0  0  0  0
   -5.8443    0.9477   -0.3634 C   0  0  2  0  0  0  0  0  0  0  0  0
   -5.1648    1.8806    0.6326 C   0  0  0  0  0  0  0  0  0  0  0  0
    3.8889   -1.4731    0.7413 C   0  0  0  0  0  0  0  0  0  0  0  0
   -5.8705   -1.2586    0.9480 C   0  0  0  0  0  0  0  0  0  0  0  0
   -5.9417   -1.2665   -1.5224 C   0  0  0  0  0  0  0  0  0  0  0  0
    3.7870    2.9577   -0.0006 C   0  0  0  0  0  0  0  0  0  0  0  0
    3.8522    3.3857   -1.4367 C   0  0  0  0  0  0  0  0  0  0  0  0
    3.5872    3.8363    0.9930 C   0  0  0  0  0  0  0  0  0  0  0  0
    4.9873   -3.3158    1.7322 C   0  0  0  0  0  0  0  0  0  0  0  0
   -1.5679    0.9654   -0.8436 H   0  0  0  0  0  0  0  0  0  0  0  0
    1.6172   -0.0638    1.0795 H   0  0  0  0  0  0  0  0  0  0  0  0
    2.8422    0.9845   -1.4904 H   0  0  0  0  0  0  0  0  0  0  0  0
   -3.5782   -0.0557   -1.3930 H   0  0  0  0  0  0  0  0  0  0  0  0
   -1.2324   -2.8086   -1.0034 H   0  0  0  0  0  0  0  0  0  0  0  0
   -1.6936   -1.4339   -1.9840 H   0  0  0  0  0  0  0  0  0  0  0  0
   -0.4834    1.1290    1.9913 H   0  0  0  0  0  0  0  0  0  0  0  0
   -1.0889    2.4609    1.0322 H   0  0  0  0  0  0  0  0  0  0  0  0
    0.9910   -2.5411   -1.7998 H   0  0  0  0  0  0  0  0  0  0  0  0
    1.5541   -2.5097   -0.1461 H   0  0  0  0  0  0  0  0  0  0  0  0
    0.6919    2.2889   -0.5659 H   0  0  0  0  0  0  0  0  0  0  0  0
    1.3352    2.3104    1.0689 H   0  0  0  0  0  0  0  0  0  0  0  0
   -3.6266   -2.5316   -1.2080 H   0  0  0  0  0  0  0  0  0  0  0  0
   -3.1712   -2.4314    0.4715 H   0  0  0  0  0  0  0  0  0  0  0  0
    3.4536   -2.6692   -1.5982 H   0  0  0  0  0  0  0  0  0  0  0  0
    2.9601   -1.2901   -2.5472 H   0  0  0  0  0  0  0  0  0  0  0  0
    3.8950    1.3078    1.3397 H   0  0  0  0  0  0  0  0  0  0  0  0
   -3.3718    2.3014   -0.4534 H   0  0  0  0  0  0  0  0  0  0  0  0
   -3.2332    2.5107    1.2858 H   0  0  0  0  0  0  0  0  0  0  0  0
    0.0106   -2.5780    1.1165 H   0  0  0  0  0  0  0  0  0  0  0  0
    0.0472   -1.0490    1.9919 H   0  0  0  0  0  0  0  0  0  0  0  0
   -1.4445   -1.9210    1.7483 H   0  0  0  0  0  0  0  0  0  0  0  0
    1.4055    0.2646   -2.7419 H   0  0  0  0  0  0  0  0  0  0  0  0
   -0.0470   -0.6637   -2.9090 H   0  0  0  0  0  0  0  0  0  0  0  0
   -0.1027    0.9592   -2.2216 H   0  0  0  0  0  0  0  0  0  0  0  0
    5.0540   -0.0456   -2.1114 H   0  0  0  0  0  0  0  0  0  0  0  0
    5.8866   -1.0144   -0.8994 H   0  0  0  0  0  0  0  0  0  0  0  0
    5.9521    0.7548    0.6341 H   0  0  0  0  0  0  0  0  0  0  0  0
    5.9199    1.7097   -0.8263 H   0  0  0  0  0  0  0  0  0  0  0  0
   -2.2807    0.2620    2.6946 H   0  0  0  0  0  0  0  0  0  0  0  0
   -4.0004    0.4265    2.5965 H   0  0  0  0  0  0  0  0  0  0  0  0
   -3.2730   -1.1053    2.1956 H   0  0  0  0  0  0  0  0  0  0  0  0
   -5.6400    1.3481   -1.3663 H   0  0  0  0  0  0  0  0  0  0  0  0
   -5.4895    1.6469    1.6522 H   0  0  0  0  0  0  0  0  0  0  0  0
   -5.5187    2.9057    0.4611 H   0  0  0  0  0  0  0  0  0  0  0  0
   -5.6872   -0.7123    1.8735 H   0  0  0  0  0  0  0  0  0  0  0  0
   -6.9570   -1.3963    0.8877 H   0  0  0  0  0  0  0  0  0  0  0  0
   -5.4312   -2.2560    1.0474 H   0  0  0  0  0  0  0  0  0  0  0  0
   -5.7052   -2.3350   -1.5091 H   0  0  0  0  0  0  0  0  0  0  0  0
   -7.0348   -1.2017   -1.5434 H   0  0  0  0  0  0  0  0  0  0  0  0
   -5.5676   -0.8494   -2.4640 H   0  0  0  0  0  0  0  0  0  0  0  0
   -7.6840    0.7206   -0.9975 H   0  0  0  0  0  0  0  0  0  0  0  0
    4.7234    2.9943   -1.9657 H   0  0  0  0  0  0  0  0  0  0  0  0
    2.9511    3.0814   -1.9779 H   0  0  0  0  0  0  0  0  0  0  0  0
    3.9087    4.4779   -1.5181 H   0  0  0  0  0  0  0  0  0  0  0  0
    3.4628    4.8953    0.7927 H   0  0  0  0  0  0  0  0  0  0  0  0
    3.5422    3.5191    2.0295 H   0  0  0  0  0  0  0  0  0  0  0  0
    5.4846   -2.6985    2.4864 H   0  0  0  0  0  0  0  0  0  0  0  0
    5.6553   -4.1345    1.4521 H   0  0  0  0  0  0  0  0  0  0  0  0
    4.0594   -3.7390    2.1287 H   0  0  0  0  0  0  0  0  0  0  0  0
  1 26  1  0  0  0  0
  1 76  1  0  0  0  0
  2 28  1  0  0  0  0
  2 34  1  0  0  0  0
  3 28  2  0  0  0  0
  4  5  1  0  0  0  0
  4  6  1  0  0  0  0
  4 12  1  0  0  0  0
  4 21  1  0  0  0  0
  5  7  1  0  0  0  0
  5 14  1  0  0  0  0
  5 22  1  0  0  0  0
  6  8  1  0  0  0  0
  6 13  1  0  0  0  0
  6 35  1  0  0  0  0
  7  9  1  0  0  0  0
  7 15  1  0  0  0  0
  7 36  1  0  0  0  0
  8 10  1  0  0  0  0
  8 20  1  0  0  0  0
  8 25  1  0  0  0  0
  9 11  1  0  0  0  0
  9 19  1  0  0  0  0
  9 37  1  0  0  0  0
 10 16  1  0  0  0  0
 10 18  1  0  0  0  0
 10 38  1  0  0  0  0
 11 17  1  0  0  0  0
 11 23  1  0  0  0  0
 11 28  1  0  0  0  0
 12 16  1  0  0  0  0
 12 39  1  0  0  0  0
 12 40  1  0  0  0  0
 13 15  1  0  0  0  0
 13 41  1  0  0  0  0
 13 42  1  0  0  0  0
 14 17  1  0  0  0  0
 14 43  1  0  0  0  0
 14 44  1  0  0  0  0
 15 45  1  0  0  0  0
 15 46  1  0  0  0  0
 16 47  1  0  0  0  0
 16 48  1  0  0  0  0
 17 49  1  0  0  0  0
 17 50  1  0  0  0  0
 18 26  1  0  0  0  0
 18 29  1  0  0  0  0
 18 30  1  0  0  0  0
 19 24  1  0  0  0  0
 19 31  1  0  0  0  0
 19 51  1  0  0  0  0
 20 27  1  0  0  0  0
 20 52  1  0  0  0  0
 20 53  1  0  0  0  0
 21 54  1  0  0  0  0
 21 55  1  0  0  0  0
 21 56  1  0  0  0  0
 22 57  1  0  0  0  0
 22 58  1  0  0  0  0
 22 59  1  0  0  0  0
 23 24  1  0  0  0  0
 23 60  1  0  0  0  0
 23 61  1  0  0  0  0
 24 62  1  0  0  0  0
 24 63  1  0  0  0  0
 25 64  1  0  0  0  0
 25 65  1  0  0  0  0
 25 66  1  0  0  0  0
 26 27  1  0  0  0  0
 26 67  1  0  0  0  0
 27 68  1  0  0  0  0
 27 69  1  0  0  0  0
 29 70  1  0  0  0  0
 29 71  1  0  0  0  0
 29 72  1  0  0  0  0
 30 73  1  0  0  0  0
 30 74  1  0  0  0  0
 30 75  1  0  0  0  0
 31 32  1  0  0  0  0
 31 33  2  0  0  0  0
 32 77  1  0  0  0  0
 32 78  1  0  0  0  0
 32 79  1  0  0  0  0
 33 80  1  0  0  0  0
 33 81  1  0  0  0  0
 34 82  1  0  0  0  0
 34 83  1  0  0  0  0
 34 84  1  0  0  0  0
M  END
> <PUBCHEM_COMPOUND_CID>
73493

> <PUBCHEM_CONFORMER_RMSD>
0.8

> <PUBCHEM_CONFORMER_DIVERSEORDER>
1
2

> <PUBCHEM_MMFF94_PARTIAL_CHARGES>
14
1 -0.68
11 0.06
19 0.14
2 -0.43
26 0.28
28 0.66
3 -0.57
31 -0.28
32 0.14
33 -0.3
34 0.28
76 0.4
80 0.15
81 0.15

> <PUBCHEM_EFFECTIVE_ROTOR_COUNT>
5.6

> <PUBCHEM_PHARMACOPHORE_FEATURES>
9
1 1 acceptor
1 1 donor
1 3 acceptor
3 18 29 30 hydrophobe
5 9 11 19 23 24 rings
6 4 5 6 7 13 15 rings
6 4 6 8 10 12 16 rings
6 5 7 9 11 14 17 rings
6 8 10 18 20 26 27 rings

> <PUBCHEM_HEAVY_ATOM_COUNT>
34

> <PUBCHEM_ATOM_DEF_STEREO_COUNT>
10

> <PUBCHEM_ATOM_UDEF_STEREO_COUNT>
0

> <PUBCHEM_BOND_DEF_STEREO_COUNT>
0

> <PUBCHEM_BOND_UDEF_STEREO_COUNT>
0

> <PUBCHEM_ISOTOPIC_ATOM_COUNT>
0

> <PUBCHEM_COMPONENT_COUNT>
1

> <PUBCHEM_CACTVS_TAUTO_COUNT>
1

> <PUBCHEM_CONFORMER_ID>
00011F1500000001

> <PUBCHEM_MMFF94_ENERGY>
159.3694

> <PUBCHEM_FEATURE_SELFOVERLAP>
45.766

> <PUBCHEM_SHAPE_FINGERPRINT>
10554248 39 18341320137812708925
10595046 47 18340485672732491389
10906281 52 17703528652871731519
11456790 92 18116719504330073065
12107183 9 18122343475892839456
12166972 35 18059857234081061010
12236239 1 18261110751523726503
12403260 363 18341892952931715217
12596602 18 18187366536761001939
12633257 1 18341895134896414254
12788726 201 17703799097998062225
13224815 77 17561370577590702682
13533116 47 18187079525381646498
13583140 156 18187940489956093800
13782708 43 17967532324812833979
13785724 45 17981046306582567246
13811026 1 18411416254651572267
13878862 14 18336528474159661469
14068700 675 18268707213114486736
14528608 73 18272374212646396701
14739800 52 18057873826742606736
14790565 3 18200878503499379149
15082195 135 17917438622295330926
15183329 4 18273215288145258541
15788980 27 18413672400940681447
16993427 108 17316741198576176250
17349148 13 18060420205324721631
18681886 176 17989208162104921332
20511986 3 18201147858162997180
20715895 44 18199470952818059289
21033648 144 18337100284577710861
21033648 29 17240751896210248469
21315764 268 18334853888328840341
21344244 78 18267286665861545200
21814621 53 17749108864393581769
22149856 69 17131564886104792019
22393880 68 17987244515441413148
23522609 53 17558297516328895281
23559900 14 18059867121117180894
23569943 247 17169821177169115547
3004659 81 18343586226608157612
335352 9 18343589538703222076
3411729 13 18339359777416365776
350125 39 18413953888322519108
3680242 22 18340491066805279011
4058900 60 18044667618736177964
4073 2 18115875259709133826
4340502 62 18041276681477706706
474 4 18116717520424375268
5104073 3 18412270527894261433
6086070 43 18190445082923407277
67856867 119 18342172284471753760
8988823 20 18333447638599779982

> <PUBCHEM_SHAPE_MULTIPOLES>
682.1
14.85
3.41
1.6
14.05
1.46
-0.04
0.92
-0.11
-5.05
-0.64
-0.48
-0.54
-1.65

> <PUBCHEM_SHAPE_SELFOVERLAP>
1444.468

> <PUBCHEM_SHAPE_VOLUME>
380.4

> <PUBCHEM_COORDINATE_TYPE>
2
5
10

$$$$
