44256843
  -OEChem-09292009043D

 77 81  0     1  0  0  0  0  0999 V2000
   -2.6366    1.4524   -0.0610 O   0  0  0  0  0  0  0  0  0  0  0  0
    3.8389    0.0526    0.5964 O   0  0  0  0  0  0  0  0  0  0  0  0
   -1.2996    0.5187   -1.7489 O   0  0  0  0  0  0  0  0  0  0  0  0
    3.5779   -0.9354   -1.5165 O   0  0  0  0  0  0  0  0  0  0  0  0
   -1.4967    5.2904   -1.1151 O   0  0  0  0  0  0  0  0  0  0  0  0
   -2.6757    4.7899    1.4746 O   0  0  0  0  0  0  0  0  0  0  0  0
    6.9552    2.4160   -0.7612 O   0  0  0  0  0  0  0  0  0  0  0  0
    6.5823    1.9996    2.0733 O   0  0  0  0  0  0  0  0  0  0  0  0
   -2.3818    2.9895   -2.4199 O   0  0  0  0  0  0  0  0  0  0  0  0
    4.3938    1.7199   -1.6181 O   0  0  0  0  0  0  0  0  0  0  0  0
   -5.1328    2.3491    0.7848 O   0  0  0  0  0  0  0  0  0  0  0  0
    3.1355   -0.1847    3.2327 O   0  0  0  0  0  0  0  0  0  0  0  0
   -0.7557   -2.7760   -0.2281 O   0  3  0  0  0  0  0  0  0  0  0  0
    3.2440   -5.2837    0.4861 O   0  0  0  0  0  0  0  0  0  0  0  0
   -5.4173   -1.8094    2.1030 O   0  0  0  0  0  0  0  0  0  0  0  0
   -7.0307   -1.6490   -0.1552 O   0  0  0  0  0  0  0  0  0  0  0  0
   -1.4367    4.0306   -0.4517 C   0  0  1  0  0  0  0  0  0  0  0  0
   -2.6946    3.8512    0.4022 C   0  0  1  0  0  0  0  0  0  0  0  0
    6.3093    1.2713   -0.2109 C   0  0  1  0  0  0  0  0  0  0  0  0
    5.6056    1.6673    1.0898 C   0  0  1  0  0  0  0  0  0  0  0  0
   -1.3093    2.9035   -1.4762 C   0  0  1  0  0  0  0  0  0  0  0  0
    5.3113    0.6977   -1.2164 C   0  0  1  0  0  0  0  0  0  0  0  0
   -2.7533    2.4296    0.9784 C   0  0  1  0  0  0  0  0  0  0  0  0
    4.7438    0.5074    1.6079 C   0  0  1  0  0  0  0  0  0  0  0  0
   -1.4003    1.5503   -0.7718 C   0  0  1  0  0  0  0  0  0  0  0  0
    4.5130   -0.4323   -0.5672 C   0  0  1  0  0  0  0  0  0  0  0  0
   -4.0703    2.1730    1.7039 C   0  0  0  0  0  0  0  0  0  0  0  0
    3.9103    0.9244    2.8155 C   0  0  0  0  0  0  0  0  0  0  0  0
    2.8407   -1.9655   -0.9747 C   0  0  0  0  0  0  0  0  0  0  0  0
   -0.7142   -0.6188   -1.2312 C   0  0  0  0  0  0  0  0  0  0  0  0
    1.4071   -1.7725   -0.9160 C   0  0  0  0  0  0  0  0  0  0  0  0
    0.7248   -0.7006   -1.3397 C   0  0  0  0  0  0  0  0  0  0  0  0
   -1.4302   -1.6151   -0.6778 C   0  0  0  0  0  0  0  0  0  0  0  0
    0.5376   -2.8422   -0.3369 C   0  0  0  0  0  0  0  0  0  0  0  0
    3.3982   -3.0983   -0.5180 C   0  0  0  0  0  0  0  0  0  0  0  0
    1.2514   -4.0617    0.1400 C   0  0  0  0  0  0  0  0  0  0  0  0
    2.5842   -4.1553    0.0439 C   0  0  0  0  0  0  0  0  0  0  0  0
   -2.8964   -1.6239   -0.5378 C   0  0  0  0  0  0  0  0  0  0  0  0
   -3.4752   -1.7134    0.7281 C   0  0  0  0  0  0  0  0  0  0  0  0
   -3.7061   -1.5432   -1.6708 C   0  0  0  0  0  0  0  0  0  0  0  0
   -4.8637   -1.7220    0.8613 C   0  0  0  0  0  0  0  0  0  0  0  0
   -5.0946   -1.5520   -1.5376 C   0  0  0  0  0  0  0  0  0  0  0  0
   -5.6734   -1.6414   -0.2717 C   0  0  0  0  0  0  0  0  0  0  0  0
   -4.5195   -1.8882    3.2085 C   0  0  0  0  0  0  0  0  0  0  0  0
   -0.5510    4.0523    0.1953 H   0  0  0  0  0  0  0  0  0  0  0  0
   -3.5779    4.0792   -0.2047 H   0  0  0  0  0  0  0  0  0  0  0  0
    7.0933    0.5344    0.0029 H   0  0  0  0  0  0  0  0  0  0  0  0
    4.9975    2.5645    0.9259 H   0  0  0  0  0  0  0  0  0  0  0  0
   -0.3826    2.9951   -2.0520 H   0  0  0  0  0  0  0  0  0  0  0  0
    5.8166    0.3609   -2.1275 H   0  0  0  0  0  0  0  0  0  0  0  0
   -1.9421    2.2750    1.7023 H   0  0  0  0  0  0  0  0  0  0  0  0
    5.3725   -0.3414    1.9096 H   0  0  0  0  0  0  0  0  0  0  0  0
   -0.5718    1.4787   -0.0511 H   0  0  0  0  0  0  0  0  0  0  0  0
    5.2213   -1.2208   -0.2788 H   0  0  0  0  0  0  0  0  0  0  0  0
   -4.2075    2.8588    2.5454 H   0  0  0  0  0  0  0  0  0  0  0  0
   -4.1106    1.1443    2.0717 H   0  0  0  0  0  0  0  0  0  0  0  0
    3.2197    1.7321    2.5511 H   0  0  0  0  0  0  0  0  0  0  0  0
    4.5425    1.2466    3.6483 H   0  0  0  0  0  0  0  0  0  0  0  0
   -0.6939    5.3735   -1.6575 H   0  0  0  0  0  0  0  0  0  0  0  0
   -1.8922    4.6072    2.0208 H   0  0  0  0  0  0  0  0  0  0  0  0
    7.3831    2.1399   -1.5896 H   0  0  0  0  0  0  0  0  0  0  0  0
    7.1275    1.2107    2.2345 H   0  0  0  0  0  0  0  0  0  0  0  0
   -3.2025    2.7156   -1.9766 H   0  0  0  0  0  0  0  0  0  0  0  0
    3.7907    1.8987   -0.8771 H   0  0  0  0  0  0  0  0  0  0  0  0
    1.2335    0.1498   -1.7850 H   0  0  0  0  0  0  0  0  0  0  0  0
   -5.9591    2.1646    1.2629 H   0  0  0  0  0  0  0  0  0  0  0  0
    2.6085    0.1044    3.9970 H   0  0  0  0  0  0  0  0  0  0  0  0
    4.4674   -3.2735   -0.5752 H   0  0  0  0  0  0  0  0  0  0  0  0
    0.6400   -4.8514    0.5612 H   0  0  0  0  0  0  0  0  0  0  0  0
   -2.7961   -1.7719    1.5729 H   0  0  0  0  0  0  0  0  0  0  0  0
   -3.2739   -1.4784   -2.6664 H   0  0  0  0  0  0  0  0  0  0  0  0
    2.5853   -5.9079    0.8367 H   0  0  0  0  0  0  0  0  0  0  0  0
   -5.7136   -1.4895   -2.4287 H   0  0  0  0  0  0  0  0  0  0  0  0
   -7.4251   -1.5855   -1.0421 H   0  0  0  0  0  0  0  0  0  0  0  0
   -5.1307   -1.9491    4.1150 H   0  0  0  0  0  0  0  0  0  0  0  0
   -3.9064   -0.9857    3.3004 H   0  0  0  0  0  0  0  0  0  0  0  0
   -3.9148   -2.8009    3.1722 H   0  0  0  0  0  0  0  0  0  0  0  0
  1 23  1  0  0  0  0
  1 25  1  0  0  0  0
  2 24  1  0  0  0  0
  2 26  1  0  0  0  0
  3 25  1  0  0  0  0
  3 30  1  0  0  0  0
  4 26  1  0  0  0  0
  4 29  1  0  0  0  0
  5 17  1  0  0  0  0
  5 59  1  0  0  0  0
  6 18  1  0  0  0  0
  6 60  1  0  0  0  0
  7 19  1  0  0  0  0
  7 61  1  0  0  0  0
  8 20  1  0  0  0  0
  8 62  1  0  0  0  0
  9 21  1  0  0  0  0
  9 63  1  0  0  0  0
 10 22  1  0  0  0  0
 10 64  1  0  0  0  0
 11 27  1  0  0  0  0
 11 66  1  0  0  0  0
 12 28  1  0  0  0  0
 12 67  1  0  0  0  0
 13 33  1  0  0  0  0
 13 34  2  0  0  0  0
 14 37  1  0  0  0  0
 14 72  1  0  0  0  0
 15 41  1  0  0  0  0
 15 44  1  0  0  0  0
 16 43  1  0  0  0  0
 16 74  1  0  0  0  0
 17 18  1  0  0  0  0
 17 21  1  0  0  0  0
 17 45  1  0  0  0  0
 18 23  1  0  0  0  0
 18 46  1  0  0  0  0
 19 20  1  0  0  0  0
 19 22  1  0  0  0  0
 19 47  1  0  0  0  0
 20 24  1  0  0  0  0
 20 48  1  0  0  0  0
 21 25  1  0  0  0  0
 21 49  1  0  0  0  0
 22 26  1  0  0  0  0
 22 50  1  0  0  0  0
 23 27  1  0  0  0  0
 23 51  1  0  0  0  0
 24 28  1  0  0  0  0
 24 52  1  0  0  0  0
 25 53  1  0  0  0  0
 26 54  1  0  0  0  0
 27 55  1  0  0  0  0
 27 56  1  0  0  0  0
 28 57  1  0  0  0  0
 28 58  1  0  0  0  0
 29 31  1  0  0  0  0
 29 35  2  0  0  0  0
 30 32  1  0  0  0  0
 30 33  2  0  0  0  0
 31 32  2  0  0  0  0
 31 34  1  0  0  0  0
 32 65  1  0  0  0  0
 33 38  1  0  0  0  0
 34 36  1  0  0  0  0
 35 37  1  0  0  0  0
 35 68  1  0  0  0  0
 36 37  2  0  0  0  0
 36 69  1  0  0  0  0
 38 39  2  0  0  0  0
 38 40  1  0  0  0  0
 39 41  1  0  0  0  0
 39 70  1  0  0  0  0
 40 42  2  0  0  0  0
 40 71  1  0  0  0  0
 41 43  2  0  0  0  0
 42 43  1  0  0  0  0
 42 73  1  0  0  0  0
 44 75  1  0  0  0  0
 44 76  1  0  0  0  0
 44 77  1  0  0  0  0
M  CHG  1  13   1
M  END
> <PUBCHEM_COMPOUND_CID>
44256843

> <PUBCHEM_CONFORMER_RMSD>
1.2

> <PUBCHEM_CONFORMER_DIVERSEORDER>
2
204
215
45
18
94
134
241
88
219
164
107
66
87
98
236
4
212
168
176
71
20
135
17
228
185
242
24
68
119
75
34
189
44
15
179
29
133
104
188
246
35
51
67
126
195
128
141
100
69
11
183
97
56
192
175
7
73
233
122
143
96
177
142
147
64
115
111
48
180
63
116
167
220
36
70
23
76
229
50
27
47
93
149
59
84
9
83
166
60
131
43
238
62
92
217
181
150
138
191
101
158
206
82
52
234
154
55
32
250
78
108
91
226
89
61
95
237
231
113
132
74
38
144
16
3
5
53
218
25
186
193
30
169
182
12
58
171
222
157
211
172
118
139
249
8
86
184
221
99
112
39
235
13
207
28
214
224
65
10
31
216
227
85
103
162
145
244
210
22
153
205
42
105
174
46
248
230
136
243
247
240
110
155
125
156
129
232
127
123
146
152
72
106
121
190
120
170
199
54
203
165
6
151
213
14
209
173
159
223
57
79
40
37
245
41
251
197
187
208
19
77
225
130
117
1
21
49
102
140
239
26
124
80
137
161
200
196
109
90
114
160
178
81
202
33
194
163
201
148
198

> <PUBCHEM_MMFF94_PARTIAL_CHARGES>
60
1 -0.56
10 -0.68
11 -0.68
12 -0.68
13 -0.86
14 -0.53
15 -0.36
16 -0.53
17 0.28
18 0.28
19 0.28
2 -0.56
20 0.28
21 0.28
22 0.28
23 0.28
24 0.28
25 0.56
26 0.56
27 0.28
28 0.28
29 0.08
3 -0.36
30 0.08
31 0.01
32 -0.15
33 0.88
34 0.92
35 -0.15
36 -0.14
37 0.08
38 0.03
39 -0.15
4 -0.36
40 -0.15
41 0.08
42 -0.15
43 0.08
44 0.28
5 -0.68
59 0.4
6 -0.68
60 0.4
61 0.4
62 0.4
63 0.4
64 0.4
65 0.15
66 0.4
67 0.4
68 0.15
69 0.15
7 -0.68
70 0.15
71 0.15
72 0.45
73 0.15
74 0.45
8 -0.68
9 -0.68

> <PUBCHEM_EFFECTIVE_ROTOR_COUNT>
10.4

> <PUBCHEM_PHARMACOPHORE_FEATURES>
28
1 1 acceptor
1 10 acceptor
1 10 donor
1 11 acceptor
1 11 donor
1 12 acceptor
1 12 donor
1 14 donor
1 15 acceptor
1 16 donor
1 2 acceptor
1 3 acceptor
1 4 acceptor
1 5 acceptor
1 5 donor
1 6 acceptor
1 6 donor
1 7 acceptor
1 7 donor
1 8 acceptor
1 8 donor
1 9 acceptor
1 9 donor
6 1 17 18 21 23 25 rings
6 13 30 31 32 33 34 rings
6 2 19 20 22 24 26 rings
6 29 31 34 35 36 37 rings
6 38 39 40 41 42 43 rings

> <PUBCHEM_HEAVY_ATOM_COUNT>
44

> <PUBCHEM_ATOM_DEF_STEREO_COUNT>
5

> <PUBCHEM_ATOM_UDEF_STEREO_COUNT>
5

> <PUBCHEM_BOND_DEF_STEREO_COUNT>
0

> <PUBCHEM_BOND_UDEF_STEREO_COUNT>
0

> <PUBCHEM_ISOTOPIC_ATOM_COUNT>
0

> <PUBCHEM_COMPONENT_COUNT>
1

> <PUBCHEM_CACTVS_TAUTO_COUNT>
23

> <PUBCHEM_CONFORMER_ID>
02A34E4B00000002

> <PUBCHEM_MMFF94_ENERGY>
149.923

> <PUBCHEM_FEATURE_SELFOVERLAP>
142.295

> <PUBCHEM_SHAPE_FINGERPRINT>
10006869 2 18342450396943090703
10670039 82 18409177614860490324
10842051 180 18263925612542920796
10842077 115 18050822474111384724
11578080 2 18130508527193531259
12758862 65 17100622583851438427
12788726 201 18260259785094463736
13617811 41 18338792433167750685
140371 6 18115041778361310807
14068700 686 18413394219623898287
14394314 77 18341339938039190881
14840074 17 18201725093446917735
15347590 135 18114752628431081875
15351334 14 11887369444009883387
16067690 210 18113621161866691928
18393751 57 18195518410464005314
19304152 47 18409446973497620600
21703447 108 18190453874732927354
392239 28 18339084920251100463
469060 322 18409735092366342305
50677037 204 18200316653184718919
5252454 2 18200593584307361748
6004065 56 18193555791099338951
6703917 75 18336841891947037574
9961470 85 17977082592849569948

> <PUBCHEM_SHAPE_MULTIPOLES>
811.59
15.05
6.36
2.38
8.17
2.48
1.68
2.08
4.52
-1.63
-0.08
-0.15
0.63
0.95

> <PUBCHEM_SHAPE_SELFOVERLAP>
1756.475

> <PUBCHEM_SHAPE_VOLUME>
435.6

> <PUBCHEM_COORDINATE_TYPE>
2
5
10

$$$$
