135988
  -OEChem-11202009593D

 22 23  0     0  0  0  0  0  0999 V2000
   -0.7769    0.0000    0.1656 C   0  0  0  0  0  0  0  0  0  0  0  0
   -1.7484    0.0000   -0.9928 C   0  0  0  0  0  0  0  0  0  0  0  0
   -2.2665    0.0000    0.4166 C   0  0  0  0  0  0  0  0  0  0  0  0
   -0.0063    1.2660    0.4618 C   0  0  0  0  0  0  0  0  0  0  0  0
   -0.0064   -1.2660    0.4618 C   0  0  0  0  0  0  0  0  0  0  0  0
    1.3333    1.2634   -0.2734 C   0  0  0  0  0  0  0  0  0  0  0  0
    1.3333   -1.2634   -0.2734 C   0  0  0  0  0  0  0  0  0  0  0  0
    2.1378   -0.0001    0.0337 C   0  0  0  0  0  0  0  0  0  0  0  0
   -1.8648   -0.9083   -1.5718 H   0  0  0  0  0  0  0  0  0  0  0  0
   -1.8647    0.9084   -1.5719 H   0  0  0  0  0  0  0  0  0  0  0  0
   -2.7304    0.9086    0.7817 H   0  0  0  0  0  0  0  0  0  0  0  0
   -2.7303   -0.9087    0.7817 H   0  0  0  0  0  0  0  0  0  0  0  0
    0.1651    1.3360    1.5431 H   0  0  0  0  0  0  0  0  0  0  0  0
   -0.5770    2.1563    0.1720 H   0  0  0  0  0  0  0  0  0  0  0  0
   -0.5772   -2.1563    0.1719 H   0  0  0  0  0  0  0  0  0  0  0  0
    0.1649   -1.3361    1.5430 H   0  0  0  0  0  0  0  0  0  0  0  0
    1.9126    2.1493    0.0096 H   0  0  0  0  0  0  0  0  0  0  0  0
    1.1576    1.3239   -1.3547 H   0  0  0  0  0  0  0  0  0  0  0  0
    1.1576   -1.3239   -1.3546 H   0  0  0  0  0  0  0  0  0  0  0  0
    1.9125   -2.1493    0.0097 H   0  0  0  0  0  0  0  0  0  0  0  0
    3.0621    0.0000   -0.5548 H   0  0  0  0  0  0  0  0  0  0  0  0
    2.4299   -0.0001    1.0910 H   0  0  0  0  0  0  0  0  0  0  0  0
  1  2  1  0  0  0  0
  1  3  1  0  0  0  0
  1  4  1  0  0  0  0
  1  5  1  0  0  0  0
  2  3  1  0  0  0  0
  2  9  1  0  0  0  0
  2 10  1  0  0  0  0
  3 11  1  0  0  0  0
  3 12  1  0  0  0  0
  4  6  1  0  0  0  0
  4 13  1  0  0  0  0
  4 14  1  0  0  0  0
  5  7  1  0  0  0  0
  5 15  1  0  0  0  0
  5 16  1  0  0  0  0
  6  8  1  0  0  0  0
  6 17  1  0  0  0  0
  6 18  1  0  0  0  0
  7  8  1  0  0  0  0
  7 19  1  0  0  0  0
  7 20  1  0  0  0  0
  8 21  1  0  0  0  0
  8 22  1  0  0  0  0
M  END
> <PUBCHEM_COMPOUND_CID>
135988

> <PUBCHEM_CONFORMER_RMSD>
0.4

> <PUBCHEM_CONFORMER_DIVERSEORDER>
1
2
3

> <PUBCHEM_MMFF94_PARTIAL_CHARGES>
9
1 -0.19
10 0.1
11 0.1
12 0.1
2 -0.2
3 -0.2
4 0.09
5 0.09
9 0.1

> <PUBCHEM_EFFECTIVE_ROTOR_COUNT>
1.4

> <PUBCHEM_PHARMACOPHORE_FEATURES>
1
6 1 4 5 6 7 8 rings

> <PUBCHEM_HEAVY_ATOM_COUNT>
8

> <PUBCHEM_ATOM_DEF_STEREO_COUNT>
0

> <PUBCHEM_ATOM_UDEF_STEREO_COUNT>
0

> <PUBCHEM_BOND_DEF_STEREO_COUNT>
0

> <PUBCHEM_BOND_UDEF_STEREO_COUNT>
0

> <PUBCHEM_ISOTOPIC_ATOM_COUNT>
0

> <PUBCHEM_COMPONENT_COUNT>
1

> <PUBCHEM_CACTVS_TAUTO_COUNT>
1

> <PUBCHEM_CONFORMER_ID>
0002133400000001

> <PUBCHEM_MMFF94_ENERGY>
7.7665

> <PUBCHEM_FEATURE_SELFOVERLAP>
5.074

> <PUBCHEM_SHAPE_FINGERPRINT>
12423570 1 11567869416883412687
137420 1 13361359163065283483
15310529 11 16660363701278136504
16945 1 18410572890003362486
18185500 45 18272647913668679535
21040471 1 18266178529158898088
23235685 24 18410015476442341656
23552423 10 18264497173985014598
241688 4 17905615402063370800
24536 1 18409727365508887793
29004967 10 18409452461837408339
5084963 1 17822009851862452433

> <PUBCHEM_SHAPE_MULTIPOLES>
164.64
2.73
1.42
0.84
0.37
0
0.09
0
0.2
-0.53
-0.08
0.24
0
0

> <PUBCHEM_SHAPE_SELFOVERLAP>
328.782

> <PUBCHEM_SHAPE_VOLUME>
97.9

> <PUBCHEM_COORDINATE_TYPE>
2
5
10

$$$$
