610161
  -OEChem-11202010303D

 29 31  0     0  0  0  0  0  0999 V2000
   -0.8428    1.4571   -0.0653 N   0  0  0  0  0  0  0  0  0  0  0  0
    0.6196   -0.4407    0.1549 C   0  0  0  0  0  0  0  0  0  0  0  0
    3.0178   -0.0812    0.2585 C   0  0  0  0  0  0  0  0  0  0  0  0
    0.3974    0.9420    0.0403 C   0  0  0  0  0  0  0  0  0  0  0  0
    1.9271   -0.9454    0.2634 C   0  0  0  0  0  0  0  0  0  0  0  0
   -1.7872   -0.7529    0.0474 C   0  0  0  0  0  0  0  0  0  0  0  0
   -0.4974   -1.2824    0.1568 C   0  0  0  0  0  0  0  0  0  0  0  0
    4.4030   -0.6199    0.3736 C   0  0  0  0  0  0  0  0  0  0  0  0
   -1.9152    0.6420   -0.0630 C   0  0  0  0  0  0  0  0  0  0  0  0
    2.8062    1.2869    0.1455 C   0  0  0  0  0  0  0  0  0  0  0  0
    1.5054    1.7851    0.0380 C   0  0  0  0  0  0  0  0  0  0  0  0
   -2.9274   -1.5752    0.0465 C   0  0  0  0  0  0  0  0  0  0  0  0
   -3.1968    1.1752   -0.1722 C   0  0  0  0  0  0  0  0  0  0  0  0
    5.0196   -0.9343   -0.9873 C   0  0  0  0  0  0  0  0  0  0  0  0
   -4.1975   -1.0172   -0.0638 C   0  0  0  0  0  0  0  0  0  0  0  0
   -4.3320    0.3609   -0.1733 C   0  0  0  0  0  0  0  0  0  0  0  0
    2.0892   -2.0183    0.3500 H   0  0  0  0  0  0  0  0  0  0  0  0
   -0.3617   -2.3597    0.2441 H   0  0  0  0  0  0  0  0  0  0  0  0
    5.0409    0.0980    0.9044 H   0  0  0  0  0  0  0  0  0  0  0  0
    4.4022   -1.5270    0.9908 H   0  0  0  0  0  0  0  0  0  0  0  0
    3.6426    1.9809    0.1376 H   0  0  0  0  0  0  0  0  0  0  0  0
    1.3656    2.8611   -0.0499 H   0  0  0  0  0  0  0  0  0  0  0  0
   -2.8314   -2.6554    0.1319 H   0  0  0  0  0  0  0  0  0  0  0  0
   -3.3286    2.2522   -0.2592 H   0  0  0  0  0  0  0  0  0  0  0  0
    4.4293   -1.6835   -1.5257 H   0  0  0  0  0  0  0  0  0  0  0  0
    6.0337   -1.3264   -0.8610 H   0  0  0  0  0  0  0  0  0  0  0  0
    5.0767   -0.0371   -1.6130 H   0  0  0  0  0  0  0  0  0  0  0  0
   -5.0763   -1.6546   -0.0641 H   0  0  0  0  0  0  0  0  0  0  0  0
   -5.3186    0.8066   -0.2600 H   0  0  0  0  0  0  0  0  0  0  0  0
  1  4  2  0  0  0  0
  1  9  1  0  0  0  0
  2  4  1  0  0  0  0
  2  5  1  0  0  0  0
  2  7  2  0  0  0  0
  3  5  2  0  0  0  0
  3  8  1  0  0  0  0
  3 10  1  0  0  0  0
  4 11  1  0  0  0  0
  5 17  1  0  0  0  0
  6  7  1  0  0  0  0
  6  9  1  0  0  0  0
  6 12  2  0  0  0  0
  7 18  1  0  0  0  0
  8 14  1  0  0  0  0
  8 19  1  0  0  0  0
  8 20  1  0  0  0  0
  9 13  2  0  0  0  0
 10 11  2  0  0  0  0
 10 21  1  0  0  0  0
 11 22  1  0  0  0  0
 12 15  1  0  0  0  0
 12 23  1  0  0  0  0
 13 16  1  0  0  0  0
 13 24  1  0  0  0  0
 14 25  1  0  0  0  0
 14 26  1  0  0  0  0
 14 27  1  0  0  0  0
 15 16  2  0  0  0  0
 15 28  1  0  0  0  0
 16 29  1  0  0  0  0
M  END
> <PUBCHEM_COMPOUND_CID>
610161

> <PUBCHEM_CONFORMER_RMSD>
0.6

> <PUBCHEM_CONFORMER_DIVERSEORDER>
1

> <PUBCHEM_MMFF94_PARTIAL_CHARGES>
21
1 -0.62
10 -0.15
11 -0.15
12 -0.15
13 -0.15
15 -0.15
16 -0.15
17 0.15
18 0.15
21 0.15
22 0.15
23 0.15
24 0.15
28 0.15
29 0.15
3 -0.14
4 0.31
5 -0.15
7 -0.15
8 0.14
9 0.31

> <PUBCHEM_EFFECTIVE_ROTOR_COUNT>
1

> <PUBCHEM_PHARMACOPHORE_FEATURES>
5
1 1 acceptor
1 14 hydrophobe
6 1 2 4 6 7 9 rings
6 2 3 4 5 10 11 rings
6 6 9 12 13 15 16 rings

> <PUBCHEM_HEAVY_ATOM_COUNT>
16

> <PUBCHEM_ATOM_DEF_STEREO_COUNT>
0

> <PUBCHEM_ATOM_UDEF_STEREO_COUNT>
0

> <PUBCHEM_BOND_DEF_STEREO_COUNT>
0

> <PUBCHEM_BOND_UDEF_STEREO_COUNT>
0

> <PUBCHEM_ISOTOPIC_ATOM_COUNT>
0

> <PUBCHEM_COMPONENT_COUNT>
1

> <PUBCHEM_CACTVS_TAUTO_COUNT>
1

> <PUBCHEM_CONFORMER_ID>
00094F7100000001

> <PUBCHEM_MMFF94_ENERGY>
46.4365

> <PUBCHEM_FEATURE_SELFOVERLAP>
25.433

> <PUBCHEM_SHAPE_FINGERPRINT>
10062212 137 18411691097856217843
10608611 8 18409723002181226825
10967382 1 18409444774014883371
11132069 177 18411410730695960313
11458722 379 18335422348292603506
11471102 20 18409724097059971900
11543360 7 15575000606224026186
12032990 46 18411420634879930234
12236239 1 17676205741692772874
13221675 6 18408881836772258163
13288520 33 18413110537413474110
13675066 3 18131062762241583626
13690532 89 18410291402336928778
13862211 1 18410285904626322282
14115302 16 17967823772724263278
14911166 2 18408885113869117900
15196674 1 18410291449439306601
15442244 35 18410008806110172296
15536298 74 18341047514463147936
16945 1 18336536119195718113
17802600 8 18409441501244541969
17804303 29 18411139142739317525
17834072 8 18409163294832759581
18186145 218 17968086555807934351
18522853 276 18413385449437569968
19141452 34 17988643021059315999
200 152 17917989490600771531
20374829 77 18410855430664998358
20645477 70 18341612646286277510
21267235 1 18410018749434384979
221490 88 18263369259712039130
23175994 123 17418095407724222000
23402539 116 18271798012729072439
23402655 69 18409159983508147133
23463225 33 18335698364413119749
23559900 14 18342171194104111136
2748010 2 18337383962967381341
2871803 45 18261100916011500503
296302 2 11097851891317234505
29717793 49 18059850684340376301
3004659 81 18187369767162165574
335352 9 18410572847349296861
4214541 1 18410572868702865609
474 4 16589441989031291220
4990 188 18342743992338187110
5104073 3 18410854399387467121
633830 44 17894626002086446623
69090 78 18271518779999785111
7364860 26 18269555116921200960
77779 3 18410293639751152328
8809292 202 18260551164223678243
9709674 26 18264771149817029203
9981440 41 17326892284185263864

> <PUBCHEM_SHAPE_MULTIPOLES>
324.29
8.92
1.71
0.7
2.59
0.27
-0.05
-2.23
-1.2
-0.18
-0.01
0.36
-0.07
0.31

> <PUBCHEM_SHAPE_SELFOVERLAP>
724.521

> <PUBCHEM_SHAPE_VOLUME>
172

> <PUBCHEM_COORDINATE_TYPE>
2
5
10

$$$$
