7308311
  -OEChem-11202010463D

 42 44  0     1  0  0  0  0  0999 V2000
    2.1446    1.0849    1.5201 O   0  0  0  0  0  0  0  0  0  0  0  0
   -1.0706    0.0151   -0.4991 C   0  0  1  0  0  0  0  0  0  0  0  0
   -2.0766    1.0467   -0.0483 C   0  0  0  0  0  0  0  0  0  0  0  0
   -0.8907    1.4589   -0.8727 C   0  0  1  0  0  0  0  0  0  0  0  0
   -0.2457   -0.6999    0.5491 C   0  0  2  0  0  0  0  0  0  0  0  0
    1.2704   -0.7650    0.2550 C   0  0  2  0  0  0  0  0  0  0  0  0
    0.2289    2.2509   -0.3036 C   0  0  0  0  0  0  0  0  0  0  0  0
   -0.5597   -2.2188    0.5453 C   0  0  2  0  0  0  0  0  0  0  0  0
    2.0977    0.5393    0.1889 C   0  0  1  0  0  0  0  0  0  0  0  0
    1.3439   -1.7314   -0.9330 C   0  0  0  0  0  0  0  0  0  0  0  0
    1.5753    1.6600   -0.7268 C   0  0  0  0  0  0  0  0  0  0  0  0
   -2.1661    1.4690    1.3791 C   0  0  0  0  0  0  0  0  0  0  0  0
   -3.4044    1.0289   -0.7296 C   0  0  0  0  0  0  0  0  0  0  0  0
    0.2308   -2.7603   -0.6631 C   0  0  0  0  0  0  0  0  0  0  0  0
   -2.0311   -2.6070    0.5427 C   0  0  0  0  0  0  0  0  0  0  0  0
    3.5533    0.2286   -0.2040 C   0  0  0  0  0  0  0  0  0  0  0  0
   -1.3206   -0.6196   -1.3434 H   0  0  0  0  0  0  0  0  0  0  0  0
   -1.0530    1.7087   -1.9171 H   0  0  0  0  0  0  0  0  0  0  0  0
   -0.4107   -0.3243    1.5599 H   0  0  0  0  0  0  0  0  0  0  0  0
    1.7072   -1.3118    1.1095 H   0  0  0  0  0  0  0  0  0  0  0  0
    0.1835    2.4155    0.7722 H   0  0  0  0  0  0  0  0  0  0  0  0
    0.1540    3.2565   -0.7392 H   0  0  0  0  0  0  0  0  0  0  0  0
   -0.1181   -2.6548    1.4538 H   0  0  0  0  0  0  0  0  0  0  0  0
    2.3187   -2.2242   -1.0049 H   0  0  0  0  0  0  0  0  0  0  0  0
    1.1593   -1.2135   -1.8808 H   0  0  0  0  0  0  0  0  0  0  0  0
    1.5401    1.3167   -1.7682 H   0  0  0  0  0  0  0  0  0  0  0  0
    2.2968    2.4884   -0.6936 H   0  0  0  0  0  0  0  0  0  0  0  0
   -1.2234    1.5155    1.9265 H   0  0  0  0  0  0  0  0  0  0  0  0
   -2.8166    0.7811    1.9318 H   0  0  0  0  0  0  0  0  0  0  0  0
   -2.6143    2.4672    1.4460 H   0  0  0  0  0  0  0  0  0  0  0  0
   -3.8639    2.0229   -0.7071 H   0  0  0  0  0  0  0  0  0  0  0  0
   -4.0830    0.3279   -0.2316 H   0  0  0  0  0  0  0  0  0  0  0  0
   -3.3317    0.7246   -1.7799 H   0  0  0  0  0  0  0  0  0  0  0  0
   -0.3981   -2.8743   -1.5531 H   0  0  0  0  0  0  0  0  0  0  0  0
    0.6526   -3.7449   -0.4329 H   0  0  0  0  0  0  0  0  0  0  0  0
   -2.5406   -2.3107   -0.3789 H   0  0  0  0  0  0  0  0  0  0  0  0
   -2.1360   -3.6931    0.6373 H   0  0  0  0  0  0  0  0  0  0  0  0
   -2.5531   -2.1431    1.3858 H   0  0  0  0  0  0  0  0  0  0  0  0
    4.1871    1.1157   -0.0874 H   0  0  0  0  0  0  0  0  0  0  0  0
    3.9794   -0.5370    0.4546 H   0  0  0  0  0  0  0  0  0  0  0  0
    3.6331   -0.1160   -1.2397 H   0  0  0  0  0  0  0  0  0  0  0  0
    1.2586    1.0378    1.9137 H   0  0  0  0  0  0  0  0  0  0  0  0
  1  9  1  0  0  0  0
  1 42  1  0  0  0  0
  2  3  1  0  0  0  0
  2  4  1  0  0  0  0
  2  5  1  0  0  0  0
  2 17  1  0  0  0  0
  3  4  1  0  0  0  0
  3 12  1  0  0  0  0
  3 13  1  0  0  0  0
  4  7  1  0  0  0  0
  4 18  1  0  0  0  0
  5  6  1  0  0  0  0
  5  8  1  0  0  0  0
  5 19  1  0  0  0  0
  6  9  1  0  0  0  0
  6 10  1  0  0  0  0
  6 20  1  0  0  0  0
  7 11  1  0  0  0  0
  7 21  1  0  0  0  0
  7 22  1  0  0  0  0
  8 14  1  0  0  0  0
  8 15  1  0  0  0  0
  8 23  1  0  0  0  0
  9 11  1  0  0  0  0
  9 16  1  0  0  0  0
 10 14  1  0  0  0  0
 10 24  1  0  0  0  0
 10 25  1  0  0  0  0
 11 26  1  0  0  0  0
 11 27  1  0  0  0  0
 12 28  1  0  0  0  0
 12 29  1  0  0  0  0
 12 30  1  0  0  0  0
 13 31  1  0  0  0  0
 13 32  1  0  0  0  0
 13 33  1  0  0  0  0
 14 34  1  0  0  0  0
 14 35  1  0  0  0  0
 15 36  1  0  0  0  0
 15 37  1  0  0  0  0
 15 38  1  0  0  0  0
 16 39  1  0  0  0  0
 16 40  1  0  0  0  0
 16 41  1  0  0  0  0
M  END
> <PUBCHEM_COMPOUND_CID>
7308311

> <PUBCHEM_CONFORMER_RMSD>
0.6

> <PUBCHEM_CONFORMER_DIVERSEORDER>
2
1

> <PUBCHEM_MMFF94_PARTIAL_CHARGES>
12
1 -0.68
12 0.09
13 0.09
17 0.1
18 0.1
2 -0.19
3 -0.19
4 -0.19
42 0.4
5 0.09
7 0.09
9 0.28

> <PUBCHEM_EFFECTIVE_ROTOR_COUNT>
1.4

> <PUBCHEM_PHARMACOPHORE_FEATURES>
5
1 1 acceptor
1 1 donor
3 3 12 13 hydrophobe
5 5 6 8 10 14 rings
7 2 4 5 6 7 9 11 rings

> <PUBCHEM_HEAVY_ATOM_COUNT>
16

> <PUBCHEM_ATOM_DEF_STEREO_COUNT>
6

> <PUBCHEM_ATOM_UDEF_STEREO_COUNT>
0

> <PUBCHEM_BOND_DEF_STEREO_COUNT>
0

> <PUBCHEM_BOND_UDEF_STEREO_COUNT>
0

> <PUBCHEM_ISOTOPIC_ATOM_COUNT>
0

> <PUBCHEM_COMPONENT_COUNT>
1

> <PUBCHEM_CACTVS_TAUTO_COUNT>
1

> <PUBCHEM_CONFORMER_ID>
006F841700000002

> <PUBCHEM_MMFF94_ENERGY>
58.9802

> <PUBCHEM_FEATURE_SELFOVERLAP>
25.428

> <PUBCHEM_SHAPE_FINGERPRINT>
104564 63 17904494243789990239
10967382 1 18336827468281143319
11086676 242 17829898989467741586
11680611 10 17823965930451253072
11680986 33 18410859832532041326
12423570 1 15298045348232163126
12524768 44 18192995920045845365
13132413 78 16681486715585996341
13140716 1 18337391651085630384
13172582 1 18333724710987196272
13380535 76 18411132502788618686
14251711 518 17328020383162061190
14251745 187 18342740693755863406
144361 1 18044098083790542920
14817 1 16973014329250795299
15076042 46 18124040284364399636
15309172 13 18335144150323198688
15490181 8 18411145735725230509
15852999 172 18337933632902801589
15881359 60 17910661387087885975
16945 1 18265346027042207660
193761 8 17975697504128958356
20510252 161 18125442161705619120
20511035 2 18341324591482849414
20588541 1 18339365162845951446
20645477 70 18052523384550793005
20871998 184 18267588098802297318
21501502 16 18190471651870590428
21524375 3 18340195298319955074
22802520 49 18271260351928406814
2334 1 18265618864876433868
23388829 49 17183896407599162812
23419403 2 14974293608041105299
23493267 7 16662637362159094205
23526113 38 17846509097555493340
23557571 272 18124892398146146644
23559900 14 18342747313160322844
2748010 2 18411145748525814382
528886 8 18410289186086539080
53812654 25 17476919533276747930
5845 1 11098696191804175838
63268167 104 18127127463917809945
7364860 26 17910946950952330343
81228 2 18120647200044760962

> <PUBCHEM_SHAPE_MULTIPOLES>
323.4
4.01
3.08
1.12
0.19
1.88
-0.21
-1.49
-0.02
-0.63
0.15
-0.11
-0.19
0.4

> <PUBCHEM_SHAPE_SELFOVERLAP>
674.825

> <PUBCHEM_SHAPE_VOLUME>
186.7

> <PUBCHEM_COORDINATE_TYPE>
2
5
10

$$$$
