5353015
  -OEChem-11202010513D

 42 42  0     1  0  0  0  0  0999 V2000
   -3.5322    1.0077    0.9628 O   0  0  0  0  0  0  0  0  0  0  0  0
    2.2956   -0.6926    0.0894 C   0  0  0  0  0  0  0  0  0  0  0  0
    2.5799    0.7934   -0.2811 C   0  0  0  0  0  0  0  0  0  0  0  0
    1.9434    1.9165    0.5557 C   0  0  0  0  0  0  0  0  0  0  0  0
   -1.4355   -1.8342   -0.5075 C   0  0  1  0  0  0  0  0  0  0  0  0
    0.9373   -1.0822   -0.4630 C   0  0  0  0  0  0  0  0  0  0  0  0
    0.4242    1.9268    0.7887 C   0  0  0  0  0  0  0  0  0  0  0  0
   -2.5883   -1.0513    0.1526 C   0  0  0  0  0  0  0  0  0  0  0  0
    3.3316   -1.5721   -0.6486 C   0  0  0  0  0  0  0  0  0  0  0  0
    2.4733   -0.9352    1.5985 C   0  0  0  0  0  0  0  0  0  0  0  0
   -0.1103   -1.6190    0.1819 C   0  0  0  0  0  0  0  0  0  0  0  0
   -2.2932    0.4005    0.5753 C   0  0  1  0  0  0  0  0  0  0  0  0
   -0.4961    1.9445   -0.4163 C   0  0  0  0  0  0  0  0  0  0  0  0
   -1.6628    1.2653   -0.4869 C   0  0  0  0  0  0  0  0  0  0  0  0
   -1.7647   -3.3280   -0.5549 C   0  0  0  0  0  0  0  0  0  0  0  0
   -0.1023    2.8599   -1.5466 C   0  0  0  0  0  0  0  0  0  0  0  0
    2.3320    0.9587   -1.3376 H   0  0  0  0  0  0  0  0  0  0  0  0
    3.6661    0.9564   -0.2232 H   0  0  0  0  0  0  0  0  0  0  0  0
    2.2316    2.8722    0.0978 H   0  0  0  0  0  0  0  0  0  0  0  0
    2.4261    1.9206    1.5421 H   0  0  0  0  0  0  0  0  0  0  0  0
   -1.3653   -1.4895   -1.5483 H   0  0  0  0  0  0  0  0  0  0  0  0
    0.8053   -0.8630   -1.5235 H   0  0  0  0  0  0  0  0  0  0  0  0
    0.1969    2.8311    1.3701 H   0  0  0  0  0  0  0  0  0  0  0  0
    0.1916    1.0944    1.4547 H   0  0  0  0  0  0  0  0  0  0  0  0
   -3.4522   -1.0598   -0.5272 H   0  0  0  0  0  0  0  0  0  0  0  0
   -2.9383   -1.5890    1.0456 H   0  0  0  0  0  0  0  0  0  0  0  0
    4.3515   -1.3462   -0.3160 H   0  0  0  0  0  0  0  0  0  0  0  0
    3.1537   -2.6385   -0.4645 H   0  0  0  0  0  0  0  0  0  0  0  0
    3.2971   -1.4128   -1.7333 H   0  0  0  0  0  0  0  0  0  0  0  0
    1.7302   -0.4019    2.1986 H   0  0  0  0  0  0  0  0  0  0  0  0
    2.3862   -2.0004    1.8438 H   0  0  0  0  0  0  0  0  0  0  0  0
    3.4637   -0.6045    1.9324 H   0  0  0  0  0  0  0  0  0  0  0  0
   -0.0489   -1.8636    1.2377 H   0  0  0  0  0  0  0  0  0  0  0  0
   -1.6916    0.3667    1.4863 H   0  0  0  0  0  0  0  0  0  0  0  0
   -2.2610    1.3682   -1.3919 H   0  0  0  0  0  0  0  0  0  0  0  0
   -1.8605   -3.7509    0.4516 H   0  0  0  0  0  0  0  0  0  0  0  0
   -2.7083   -3.4997   -1.0841 H   0  0  0  0  0  0  0  0  0  0  0  0
   -0.9814   -3.8858   -1.0804 H   0  0  0  0  0  0  0  0  0  0  0  0
    0.7958    2.4963   -2.0523 H   0  0  0  0  0  0  0  0  0  0  0  0
    0.0940    3.8677   -1.1656 H   0  0  0  0  0  0  0  0  0  0  0  0
   -0.8893    2.9475   -2.3036 H   0  0  0  0  0  0  0  0  0  0  0  0
   -3.3327    1.9014    1.2913 H   0  0  0  0  0  0  0  0  0  0  0  0
  1 12  1  0  0  0  0
  1 42  1  0  0  0  0
  2  3  1  0  0  0  0
  2  6  1  0  0  0  0
  2  9  1  0  0  0  0
  2 10  1  0  0  0  0
  3  4  1  0  0  0  0
  3 17  1  0  0  0  0
  3 18  1  0  0  0  0
  4  7  1  0  0  0  0
  4 19  1  0  0  0  0
  4 20  1  0  0  0  0
  5  8  1  0  0  0  0
  5 11  1  0  0  0  0
  5 15  1  0  0  0  0
  5 21  1  0  0  0  0
  6 11  2  0  0  0  0
  6 22  1  0  0  0  0
  7 13  1  0  0  0  0
  7 23  1  0  0  0  0
  7 24  1  0  0  0  0
  8 12  1  0  0  0  0
  8 25  1  0  0  0  0
  8 26  1  0  0  0  0
  9 27  1  0  0  0  0
  9 28  1  0  0  0  0
  9 29  1  0  0  0  0
 10 30  1  0  0  0  0
 10 31  1  0  0  0  0
 10 32  1  0  0  0  0
 11 33  1  0  0  0  0
 12 14  1  0  0  0  0
 12 34  1  0  0  0  0
 13 14  2  0  0  0  0
 13 16  1  0  0  0  0
 14 35  1  0  0  0  0
 15 36  1  0  0  0  0
 15 37  1  0  0  0  0
 15 38  1  0  0  0  0
 16 39  1  0  0  0  0
 16 40  1  0  0  0  0
 16 41  1  0  0  0  0
M  END
> <PUBCHEM_COMPOUND_CID>
5353015

> <PUBCHEM_CONFORMER_RMSD>
0.6

> <PUBCHEM_CONFORMER_DIVERSEORDER>
3
2
1

> <PUBCHEM_MMFF94_PARTIAL_CHARGES>
14
1 -0.68
11 -0.29
12 0.42
13 -0.28
14 -0.29
16 0.14
2 0.14
22 0.15
33 0.15
35 0.15
42 0.4
5 0.14
6 -0.29
7 0.14

> <PUBCHEM_EFFECTIVE_ROTOR_COUNT>
1.4

> <PUBCHEM_PHARMACOPHORE_FEATURES>
3
1 1 acceptor
1 1 donor
3 2 9 10 hydrophobe

> <PUBCHEM_HEAVY_ATOM_COUNT>
16

> <PUBCHEM_ATOM_DEF_STEREO_COUNT>
0

> <PUBCHEM_ATOM_UDEF_STEREO_COUNT>
2

> <PUBCHEM_BOND_DEF_STEREO_COUNT>
2

> <PUBCHEM_BOND_UDEF_STEREO_COUNT>
0

> <PUBCHEM_ISOTOPIC_ATOM_COUNT>
0

> <PUBCHEM_COMPONENT_COUNT>
1

> <PUBCHEM_CACTVS_TAUTO_COUNT>
1

> <PUBCHEM_CONFORMER_ID>
0051AE3700000003

> <PUBCHEM_MMFF94_ENERGY>
34.4791

> <PUBCHEM_FEATURE_SELFOVERLAP>
15.223

> <PUBCHEM_SHAPE_FINGERPRINT>
10759866 29 17606693413666974510
10967382 1 18268433429765131574
11086676 242 18261393304304776000
11132069 177 18341325609147421018
11321824 6 17974260171827221666
12696612 119 18192433197488404814
13140716 1 18410570699644200242
13172582 1 18340767052818962507
14178342 30 18124307465737883585
1420 336 18410854399329710339
14251711 518 18334289881364837242
14251717 144 18269550560055488117
14251745 187 18051132798272484096
14251757 17 17685166872975706999
14614273 12 17758966917527350525
15375462 175 18123194498145951610
15775835 57 18409175406455950208
15881359 60 18125413385335103852
16945 1 18264478499493461926
19868273 325 18409728477984811606
20905425 154 17910682294956904623
21501502 16 18340484590184428866
22721475 48 18339928112567536936
2334 1 18265891535033264918
23388829 49 17764020663889728191
23419403 2 16475361030166443569
23552423 10 17831296473363391199
238 59 17106748688936858165
2748010 2 18409722988958312205
2897 32 17833829747874270677
3286 77 17203030911919852379
66348 1 18123183769095918230
7832392 63 18270688691364343675
81228 2 18340471357406644223

> <PUBCHEM_SHAPE_MULTIPOLES>
323.4
4.62
3.51
1.16
0.08
0.08
-0.07
1.41
-0.75
-0.85
1.02
0.24
-0.31
-0.28

> <PUBCHEM_SHAPE_SELFOVERLAP>
629.756

> <PUBCHEM_SHAPE_VOLUME>
195.3

> <PUBCHEM_COORDINATE_TYPE>
2
5
10

$$$$
