541869
  -OEChem-11202010563D

 29 29  0     1  0  0  0  0  0999 V2000
   -3.6383    1.0271   -0.0217 N   0  0  0  0  0  0  0  0  0  0  0  0
   -1.5267    0.1058    0.8317 C   0  0  0  0  0  0  0  0  0  0  0  0
   -2.4826    0.1965   -0.3729 C   0  0  1  0  0  0  0  0  0  0  0  0
   -0.1172   -0.2591    0.4585 C   0  0  0  0  0  0  0  0  0  0  0  0
    0.8160    0.7266    0.1575 C   0  0  0  0  0  0  0  0  0  0  0  0
    2.1181    0.3629   -0.1861 C   0  0  0  0  0  0  0  0  0  0  0  0
    0.2347   -1.6038    0.4202 C   0  0  0  0  0  0  0  0  0  0  0  0
   -2.9941   -1.1719   -0.8228 C   0  0  0  0  0  0  0  0  0  0  0  0
    0.4295    2.1709    0.2008 C   0  0  0  0  0  0  0  0  0  0  0  0
    2.4784   -0.9841   -0.2266 C   0  0  0  0  0  0  0  0  0  0  0  0
    1.5368   -1.9673    0.0766 C   0  0  0  0  0  0  0  0  0  0  0  0
    3.1454    1.3963   -0.5151 C   0  0  0  0  0  0  0  0  0  0  0  0
   -1.9116   -0.6257    1.5570 H   0  0  0  0  0  0  0  0  0  0  0  0
   -1.5199    1.0460    1.3982 H   0  0  0  0  0  0  0  0  0  0  0  0
   -1.9821    0.6734   -1.2235 H   0  0  0  0  0  0  0  0  0  0  0  0
   -0.4868   -2.3805    0.6578 H   0  0  0  0  0  0  0  0  0  0  0  0
   -3.7175   -1.0692   -1.6400 H   0  0  0  0  0  0  0  0  0  0  0  0
   -3.4862   -1.7093   -0.0045 H   0  0  0  0  0  0  0  0  0  0  0  0
   -2.1760   -1.7957   -1.1954 H   0  0  0  0  0  0  0  0  0  0  0  0
    1.1005    2.8196   -0.3686 H   0  0  0  0  0  0  0  0  0  0  0  0
   -0.5565    2.3410   -0.2420 H   0  0  0  0  0  0  0  0  0  0  0  0
    0.4220    2.5252    1.2369 H   0  0  0  0  0  0  0  0  0  0  0  0
    3.4881   -1.2851   -0.4931 H   0  0  0  0  0  0  0  0  0  0  0  0
    1.8175   -3.0161    0.0457 H   0  0  0  0  0  0  0  0  0  0  0  0
   -3.3204    1.9500    0.2718 H   0  0  0  0  0  0  0  0  0  0  0  0
   -4.1190    0.6254    0.7828 H   0  0  0  0  0  0  0  0  0  0  0  0
    2.8957    1.9045   -1.4521 H   0  0  0  0  0  0  0  0  0  0  0  0
    3.2379    2.1290    0.2935 H   0  0  0  0  0  0  0  0  0  0  0  0
    4.1372    0.9487   -0.6459 H   0  0  0  0  0  0  0  0  0  0  0  0
  1  3  1  0  0  0  0
  1 25  1  0  0  0  0
  1 26  1  0  0  0  0
  2  3  1  0  0  0  0
  2  4  1  0  0  0  0
  2 13  1  0  0  0  0
  2 14  1  0  0  0  0
  3  8  1  0  0  0  0
  3 15  1  0  0  0  0
  4  5  1  0  0  0  0
  4  7  2  0  0  0  0
  5  6  2  0  0  0  0
  5  9  1  0  0  0  0
  6 10  1  0  0  0  0
  6 12  1  0  0  0  0
  7 11  1  0  0  0  0
  7 16  1  0  0  0  0
  8 17  1  0  0  0  0
  8 18  1  0  0  0  0
  8 19  1  0  0  0  0
  9 20  1  0  0  0  0
  9 21  1  0  0  0  0
  9 22  1  0  0  0  0
 10 11  2  0  0  0  0
 10 23  1  0  0  0  0
 11 24  1  0  0  0  0
 12 27  1  0  0  0  0
 12 28  1  0  0  0  0
 12 29  1  0  0  0  0
M  END
> <PUBCHEM_COMPOUND_CID>
541869

> <PUBCHEM_CONFORMER_RMSD>
0.6

> <PUBCHEM_CONFORMER_DIVERSEORDER>
2
9
7
6
5
1
4
8
3

> <PUBCHEM_MMFF94_PARTIAL_CHARGES>
16
1 -0.99
10 -0.15
11 -0.15
12 0.14
16 0.15
2 0.14
23 0.15
24 0.15
25 0.36
26 0.36
3 0.27
4 -0.14
5 -0.14
6 -0.14
7 -0.15
9 0.14

> <PUBCHEM_EFFECTIVE_ROTOR_COUNT>
2

> <PUBCHEM_PHARMACOPHORE_FEATURES>
3
1 1 cation
1 1 donor
6 4 5 6 7 10 11 rings

> <PUBCHEM_HEAVY_ATOM_COUNT>
12

> <PUBCHEM_ATOM_DEF_STEREO_COUNT>
0

> <PUBCHEM_ATOM_UDEF_STEREO_COUNT>
1

> <PUBCHEM_BOND_DEF_STEREO_COUNT>
0

> <PUBCHEM_BOND_UDEF_STEREO_COUNT>
0

> <PUBCHEM_ISOTOPIC_ATOM_COUNT>
0

> <PUBCHEM_COMPONENT_COUNT>
1

> <PUBCHEM_CACTVS_TAUTO_COUNT>
1

> <PUBCHEM_CONFORMER_ID>
000844AD00000002

> <PUBCHEM_MMFF94_ENERGY>
25.5551

> <PUBCHEM_FEATURE_SELFOVERLAP>
15.223

> <PUBCHEM_SHAPE_FINGERPRINT>
11031198 65 18261684717899073781
11206711 2 17906183102229814830
11471102 20 18336263453466034837
12138202 97 17604991596831147203
12897270 3 18338507668509815767
12932764 1 17918272082337466651
13380535 76 18264205975576853242
14128692 85 18130782356648666331
14325111 11 18409167735654850441
14617773 55 17915755175477895904
15775835 57 18411422825592897757
16945 1 18196093467539499450
17844478 74 17677345913512280377
18186145 218 18260267429977832950
20201158 50 18261674774780868634
20645477 70 18340202995270712407
20820808 20 18335422365551334232
21501502 16 18408879646660833383
22802520 49 17460865190516654485
23402539 116 18342172289457837284
23402655 69 18411131416736769557
23552423 10 18337111150844754763
23559900 14 18126025977840026532
25 1 18334296474102505277
2748010 2 18194423288371666946
528886 8 18410291415021377264
63268167 104 18412830178795931633
9939556 21 18341889645991448639

> <PUBCHEM_SHAPE_MULTIPOLES>
241.97
4.97
2.05
0.81
2.72
0
0
-0.77
-1.29
-0.79
0.02
0.19
0.05
-0.37

> <PUBCHEM_SHAPE_SELFOVERLAP>
490.514

> <PUBCHEM_SHAPE_VOLUME>
142.4

> <PUBCHEM_COORDINATE_TYPE>
2
5
10

$$$$
