368926
  -OEChem-11202010262D

 43 45  0     1  0  0  0  0  0999 V2000
    5.6794   -0.6359    0.0000 O   0  0  0  0  0  0  0  0  0  0  0  0
    5.2690   -1.3605    0.0000 O   0  0  0  0  0  0  0  0  0  0  0  0
    2.9944    0.3387    0.0000 C   0  0  3  0  0  0  0  0  0  0  0  0
    2.9837   -0.5230    0.0000 C   0  0  3  0  0  0  0  0  0  0  0  0
    3.8307   -0.0641    0.0000 C   0  0  3  0  0  0  0  0  0  0  0  0
    4.6671    0.3387    0.0000 C   0  0  3  0  0  0  0  0  0  0  0  0
    4.6857   -0.5230    0.0000 C   0  0  3  0  0  0  0  0  0  0  0  0
    4.3240   -1.0336    0.0000 C   0  0  3  0  0  0  0  0  0  0  0  0
    3.4517   -1.4378    0.0000 C   0  0  0  0  0  0  0  0  0  0  0  0
    4.8736    1.2436    0.0000 C   0  0  0  0  0  0  0  0  0  0  0  0
    2.7879    1.2436    0.0000 C   0  0  0  0  0  0  0  0  0  0  0  0
    2.0000    0.2329    0.0000 C   0  0  0  0  0  0  0  0  0  0  0  0
    2.0101   -0.7513    0.0000 C   0  0  0  0  0  0  0  0  0  0  0  0
    4.2949    1.9693    0.0000 C   0  0  0  0  0  0  0  0  0  0  0  0
    3.3666    1.9693    0.0000 C   0  0  0  0  0  0  0  0  0  0  0  0
    5.6067    1.9238    0.0000 C   0  0  0  0  0  0  0  0  0  0  0  0
    5.8624    1.0945    0.0000 C   0  0  0  0  0  0  0  0  0  0  0  0
    4.4182   -0.2625    0.0000 H   0  0  0  0  0  0  0  0  0  0  0  0
    5.2839    0.2759    0.0000 H   0  0  0  0  0  0  0  0  0  0  0  0
    4.6507   -1.1420    0.0000 H   0  0  0  0  0  0  0  0  0  0  0  0
    4.3553   -1.6528    0.0000 H   0  0  0  0  0  0  0  0  0  0  0  0
    2.8962   -1.7130    0.0000 H   0  0  0  0  0  0  0  0  0  0  0  0
    3.7197   -1.9969    0.0000 H   0  0  0  0  0  0  0  0  0  0  0  0
    2.4013    1.7283    0.0000 H   0  0  0  0  0  0  0  0  0  0  0  0
    2.2292    0.9746    0.0000 H   0  0  0  0  0  0  0  0  0  0  0  0
    1.9344    0.8494    0.0000 H   0  0  0  0  0  0  0  0  0  0  0  0
    1.3835    0.1673    0.0000 H   0  0  0  0  0  0  0  0  0  0  0  0
    2.0656   -0.3836    0.0000 H   0  0  0  0  0  0  0  0  0  0  0  0
    1.8686   -0.1476    0.0000 H   0  0  0  0  0  0  0  0  0  0  0  0
    1.4065   -0.8928    0.0000 H   0  0  0  0  0  0  0  0  0  0  0  0
    2.1516   -1.3549    0.0000 H   0  0  0  0  0  0  0  0  0  0  0  0
    4.8535    2.2383    0.0000 H   0  0  0  0  0  0  0  0  0  0  0  0
    4.1569    2.5737    0.0000 H   0  0  0  0  0  0  0  0  0  0  0  0
    3.5046    2.5737    0.0000 H   0  0  0  0  0  0  0  0  0  0  0  0
    2.8080    2.2383    0.0000 H   0  0  0  0  0  0  0  0  0  0  0  0
    6.0284    1.4692    0.0000 H   0  0  0  0  0  0  0  0  0  0  0  0
    6.0612    2.3454    0.0000 H   0  0  0  0  0  0  0  0  0  0  0  0
    5.1850    2.3782    0.0000 H   0  0  0  0  0  0  0  0  0  0  0  0
    5.7700    0.4815    0.0000 H   0  0  0  0  0  0  0  0  0  0  0  0
    6.4755    1.0021    0.0000 H   0  0  0  0  0  0  0  0  0  0  0  0
    5.9549    1.7076    0.0000 H   0  0  0  0  0  0  0  0  0  0  0  0
    5.9267   -1.2044    0.0000 H   0  0  0  0  0  0  0  0  0  0  0  0
    5.3865   -1.9693    0.0000 H   0  0  0  0  0  0  0  0  0  0  0  0
  1  7  1  0  0  0  0
  1 42  1  0  0  0  0
  2  8  1  0  0  0  0
  2 43  1  0  0  0  0
  3  4  1  0  0  0  0
  3  5  1  0  0  0  0
  3 11  1  0  0  0  0
  3 12  1  0  0  0  0
  4  7  1  0  0  0  0
  4  9  1  0  0  0  0
  4 13  1  0  0  0  0
  5  6  1  0  0  0  0
  5  8  1  0  0  0  0
  5 18  1  0  0  0  0
  6  7  1  0  0  0  0
  6 10  1  0  0  0  0
  6 19  1  0  0  0  0
  7 20  1  0  0  0  0
  8  9  1  0  0  0  0
  8 21  1  0  0  0  0
  9 22  1  0  0  0  0
  9 23  1  0  0  0  0
 10 14  1  0  0  0  0
 10 16  1  0  0  0  0
 10 17  1  0  0  0  0
 11 15  1  0  0  0  0
 11 24  1  0  0  0  0
 11 25  1  0  0  0  0
 12 26  1  0  0  0  0
 12 27  1  0  0  0  0
 12 28  1  0  0  0  0
 13 29  1  0  0  0  0
 13 30  1  0  0  0  0
 13 31  1  0  0  0  0
 14 15  1  0  0  0  0
 14 32  1  0  0  0  0
 14 33  1  0  0  0  0
 15 34  1  0  0  0  0
 15 35  1  0  0  0  0
 16 36  1  0  0  0  0
 16 37  1  0  0  0  0
 16 38  1  0  0  0  0
 17 39  1  0  0  0  0
 17 40  1  0  0  0  0
 17 41  1  0  0  0  0
M  END
> <PUBCHEM_COMPOUND_CID>
368926

> <PUBCHEM_COMPOUND_CANONICALIZED>
1

> <PUBCHEM_CACTVS_COMPLEXITY>
351

> <PUBCHEM_CACTVS_HBOND_ACCEPTOR>
2

> <PUBCHEM_CACTVS_HBOND_DONOR>
2

> <PUBCHEM_CACTVS_ROTATABLE_BOND>
0

> <PUBCHEM_CACTVS_SUBSKEYS>
AAADceBwMAAAAAAAAAAAAAAAAAAAAYMAAAAwAAAABgAYAAAAAAAAGgAACAAADxSggAICAAAAAgAAAAAAAAAAAAAAAAAAAAAAAAAAEAIAAAAAQAAEAAAAAAHA4PQPgAAAAAAAAACCAAYAADAAAYAADAAAAA==

> <PUBCHEM_IUPAC_OPENEYE_NAME>
2,6,6,9-tetramethyltricyclo[5.4.0.02,9]undecane-8,11-diol

> <PUBCHEM_IUPAC_CAS_NAME>
2,6,6,9-tetramethyltricyclo[5.4.0.02,9]undecane-8,11-diol

> <PUBCHEM_IUPAC_NAME_MARKUP>
2,6,6,9-tetramethyltricyclo[5.4.0.0<SUP>2,9</SUP>]undecane-8,11-diol

> <PUBCHEM_IUPAC_NAME>
2,6,6,9-tetramethyltricyclo[5.4.0.02,9]undecane-8,11-diol

> <PUBCHEM_IUPAC_SYSTEMATIC_NAME>
2,6,6,9-tetramethyltricyclo[5.4.0.02,9]undecane-8,11-diol

> <PUBCHEM_IUPAC_TRADITIONAL_NAME>
2,6,6,9-tetramethyltricyclo[5.4.0.02,9]undecane-8,11-diol

> <PUBCHEM_IUPAC_INCHI>
InChI=1S/C15H26O2/c1-13(2)6-5-7-14(3)10-9(16)8-15(14,4)12(17)11(10)13/h9-12,16-17H,5-8H2,1-4H3

> <PUBCHEM_IUPAC_INCHIKEY>
VWMGBHVRRNKOAE-UHFFFAOYSA-N

> <PUBCHEM_XLOGP3_AA>
3.3

> <PUBCHEM_EXACT_MASS>
238.19328

> <PUBCHEM_MOLECULAR_FORMULA>
C15H26O2

> <PUBCHEM_MOLECULAR_WEIGHT>
238.37

> <PUBCHEM_OPENEYE_CAN_SMILES>
CC1(CCCC2(C3C1C(C2(CC3O)C)O)C)C

> <PUBCHEM_OPENEYE_ISO_SMILES>
CC1(CCCC2(C3C1C(C2(CC3O)C)O)C)C

> <PUBCHEM_CACTVS_TPSA>
40.5

> <PUBCHEM_MONOISOTOPIC_WEIGHT>
238.19328

> <PUBCHEM_TOTAL_CHARGE>
0

> <PUBCHEM_HEAVY_ATOM_COUNT>
17

> <PUBCHEM_ATOM_DEF_STEREO_COUNT>
0

> <PUBCHEM_ATOM_UDEF_STEREO_COUNT>
6

> <PUBCHEM_BOND_DEF_STEREO_COUNT>
0

> <PUBCHEM_BOND_UDEF_STEREO_COUNT>
0

> <PUBCHEM_ISOTOPIC_ATOM_COUNT>
0

> <PUBCHEM_COMPONENT_COUNT>
1

> <PUBCHEM_CACTVS_TAUTO_COUNT>
-1

> <PUBCHEM_COORDINATE_TYPE>
1
5
255

> <PUBCHEM_BONDANNOTATIONS>
7  1  3
8  2  3
3  12  3
4  13  3
5  8  3
6  10  3

$$$$
